Program Version,EnergyPlus, Version 23.2.0-7636e6b3e9, YMD=2025.11.30 19:55
! <Version>, Version ID
 Version, 23.2
! <Timesteps per Hour>, #TimeSteps, Minutes per TimeStep {minutes}
 Timesteps per Hour,  4, 15
! <System Convergence Limits>, Minimum System TimeStep {minutes}, Max HVAC Iterations, Minimum Plant Iterations, Maximum Plant Iterations
 System Convergence Limits, 1, 20, 2, 8
! <Simulation Control>, Do Zone Sizing, Do System Sizing, Do Plant Sizing, Do Design Days, Do Weather Simulation, Do HVAC Sizing Simulation
 Simulation Control, Yes, Yes, Yes, No, Yes, No
! <Performance Precision Tradeoffs>, Use Coil Direct Simulation, Zone Radiant Exchange Algorithm, Override Mode, Number of Timestep In Hour, Force Euler Method, Minimum Number of Warmup Days, Force Suppress All Begin Environment Resets, Minimum System Timestep, MaxZoneTempDiff, MaxAllowedDelTemp
 Performance Precision Tradeoffs, No, ScriptF, Normal, 4, No, 1, No, 1.0, 0.300, 2.0000E-003
! <Output Reporting Tolerances>, Tolerance for Time Heating Setpoint Not Met, Tolerance for Zone Cooling Setpoint Not Met Time
 Output Reporting Tolerances, 0.200, 0.200, 
! <Site:GroundTemperature:BuildingSurface>,Jan{C},Feb{C},Mar{C},Apr{C},May{C},Jun{C},Jul{C},Aug{C},Sep{C},Oct{C},Nov{C},Dec{C}
 Site:GroundTemperature:BuildingSurface,  20.03,  20.03,  20.13,  20.30,  20.43,  20.52,  20.62,  20.77,  20.78,  20.55,  20.44,  20.20
! <Site:GroundTemperature:Shallow>,Jan{C},Feb{C},Mar{C},Apr{C},May{C},Jun{C},Jul{C},Aug{C},Sep{C},Oct{C},Nov{C},Dec{C}
 Site:GroundTemperature:Shallow,  13.00,  13.00,  13.00,  13.00,  13.00,  13.00,  13.00,  13.00,  13.00,  13.00,  13.00,  13.00
! <Site:GroundTemperature:Deep>,Jan{C},Feb{C},Mar{C},Apr{C},May{C},Jun{C},Jul{C},Aug{C},Sep{C},Oct{C},Nov{C},Dec{C}
 Site:GroundTemperature:Deep,  16.00,  16.00,  16.00,  16.00,  16.00,  16.00,  16.00,  16.00,  16.00,  16.00,  16.00,  16.00
! <Site:GroundReflectance>,Jan{dimensionless},Feb{dimensionless},Mar{dimensionless},Apr{dimensionless},May{dimensionless},Jun{dimensionless},Jul{dimensionless},Aug{dimensionless},Sep{dimensionless},Oct{dimensionless},Nov{dimensionless},Dec{dimensionless}
 Site:GroundReflectance,  0.20,  0.20,  0.20,  0.20,  0.20,  0.20,  0.20,  0.20,  0.20,  0.20,  0.20,  0.20
! <Site:GroundReflectance:SnowModifier>, Normal, Daylighting {dimensionless}
 Site:GroundReflectance:SnowModifier,   1.000,   1.000
! <Site:GroundReflectance:Snow>,Jan{dimensionless},Feb{dimensionless},Mar{dimensionless},Apr{dimensionless},May{dimensionless},Jun{dimensionless},Jul{dimensionless},Aug{dimensionless},Sep{dimensionless},Oct{dimensionless},Nov{dimensionless},Dec{dimensionless}
 Site:GroundReflectance:Snow,  0.20,  0.20,  0.20,  0.20,  0.20,  0.20,  0.20,  0.20,  0.20,  0.20,  0.20,  0.20
! <Site:GroundReflectance:Snow:Daylighting>,Jan{dimensionless},Feb{dimensionless},Mar{dimensionless},Apr{dimensionless},May{dimensionless},Jun{dimensionless},Jul{dimensionless},Aug{dimensionless},Sep{dimensionless},Oct{dimensionless},Nov{dimensionless},Dec{dimensionless}
 Site:GroundReflectance:Snow:Daylighting,  0.20,  0.20,  0.20,  0.20,  0.20,  0.20,  0.20,  0.20,  0.20,  0.20,  0.20,  0.20
! <Environment:Weather Station>,Wind Sensor Height Above Ground {m},Wind Speed Profile Exponent {},Wind Speed Profile Boundary Layer Thickness {m},Air Temperature Sensor Height Above Ground {m},Wind Speed Modifier Coefficient-Internal,Temperature Modifier Coefficient-Internal
Environment:Weather Station,10.000,0.140,270.000,1.500,1.586,9.750E-003
! <Site:Location>, Location Name, Latitude {N+/S- Deg}, Longitude {E+/W- Deg},  Time Zone Number {GMT+/-}, Elevation {m},  Standard Pressure at Elevation {Pa}, Standard RhoAir at Elevation
Site:Location,Shanghai Shanghai CHN Oikolab WMO#=583620,31.23,121.47,8.00,4.00,101277,1.2037
! <Site Water Mains Temperature Information>,Calculation Method{},Water Mains Temperature Schedule Name{},Annual Average Outdoor Air Temperature{C},Maximum Difference In Monthly Average Outdoor Air Temperatures{deltaC},Fixed Default Water Mains Temperature{C}
Site Water Mains Temperature Information,FixedDefault,NA,NA,NA,10.0
! <Building Information>, Building Name,North Axis {deg},Terrain,  Loads Convergence Tolerance Value,Temperature Convergence Tolerance Value,  Solar Distribution,Maximum Number of Warmup Days,Minimum Number of Warmup Days
 Building Information,University_Classroom_Shanghai,0.000,City,4.00000E-002,0.40000,FullExterior,25,6
! <Inside Convection Algorithm>, Algorithm {Simple | TARP | CeilingDiffuser | AdaptiveConvectionAlgorithm}
Inside Convection Algorithm,Simple
! <Outside Convection Algorithm>, Algorithm {SimpleCombined | TARP | MoWitt | DOE-2 | AdaptiveConvectionAlgorithm}
Outside Convection Algorithm,SimpleCombined
! <Sky Radiance Distribution>, Value {Anisotropic}
Sky Radiance Distribution,Anisotropic
! <Zone Air Solution Algorithm>, Algorithm {ThirdOrderBackwardDifference | AnalyticalSolution | EulerMethod}, Space Heat Balance Sizing, Space Heat Balance Simulation
 Zone Air Solution Algorithm, ThirdOrderBackwardDifference, No, No
! <Zone Air Carbon Dioxide Balance Simulation>, Simulation {Yes/No}, Carbon Dioxide Concentration
 Zone Air Carbon Dioxide Balance Simulation, No,N/A
! <Zone Air Generic Contaminant Balance Simulation>, Simulation {Yes/No}, Generic Contaminant Concentration
 Zone Air Generic Contaminant Balance Simulation, No,N/A
! <Zone Air Mass Flow Balance Simulation>, Enforce Mass Balance, Adjust Zone Mixing and Return {AdjustMixingOnly | AdjustReturnOnly | AdjustMixingThenReturn | AdjustReturnThenMixing | None}, Adjust Zone Infiltration {AddInfiltration | AdjustInfiltration | None}, Infiltration Zones {MixingSourceZonesOnly | AllZones}
 Zone Air Mass Flow Balance Simulation, No,N/A,N/A,N/A
! <HVACSystemRootFindingAlgorithm>, Value {RegulaFalsi | Bisection | BisectionThenRegulaFalsi | RegulaFalsiThenBisection}
 HVACSystemRootFindingAlgorithm, RegulaFalsi
! <Environment:Site Atmospheric Variation>,Wind Speed Profile Exponent {},Wind Speed Profile Boundary Layer Thickness {m},Air Temperature Gradient Coefficient {K/m}
Environment:Site Atmospheric Variation,0.330,460.000,6.500000E-003
! <Surface Geometry>,Starting Corner,Vertex Input Direction,Coordinate System,Daylight Reference Point Coordinate System,Rectangular (Simple) Surface Coordinate System
 Surface Geometry,UpperLeftCorner,Counterclockwise,RelativeCoordinateSystem,RelativeCoordinateSystem,RelativeToZoneOrigin
! <Surface Heat Transfer Algorithm>, Value {CTF - ConductionTransferFunction | EMPD - MoisturePenetrationDepthConductionTransferFunction | CondFD - ConductionFiniteDifference | HAMT - CombinedHeatAndMoistureFiniteElement} - Description,Inside Surface Max Temperature Limit{C}, Surface Convection Coefficient Lower Limit {W/m2-K}, Surface Convection Coefficient Upper Limit {W/m2-K}
Surface Heat Transfer Algorithm, CTF - ConductionTransferFunction,200,0.10,1000.0
! <Shading Summary>, Number of Fixed Detached Shades, Number of Building Detached Shades, Number of Attached Shades
 Shading Summary,0,0,4
! <Zone Summary>, Number of Zones, Number of Zone Surfaces, Number of SubSurfaces
 Zone Summary,6,46,6
! <Zone Information>,Zone Name,North Axis {deg},Origin X-Coordinate {m},Origin Y-Coordinate {m},Origin Z-Coordinate {m},Centroid X-Coordinate {m},Centroid Y-Coordinate {m},Centroid Z-Coordinate {m},Type,Zone Multiplier,Zone List Multiplier,Minimum X {m},Maximum X {m},Minimum Y {m},Maximum Y {m},Minimum Z {m},Maximum Z {m},Ceiling Height {m},Volume {m3},Zone Inside Convection Algorithm {Simple-Detailed-CeilingDiffuser-TrombeWall},Zone Outside Convection Algorithm {Simple-Detailed-Tarp-MoWitt-DOE-2-BLAST}, Floor Area {m2},Exterior Gross Wall Area {m2},Exterior Net Wall Area {m2},Exterior Window Area {m2}, Number of Surfaces, Number of SubSurfaces, Number of Shading SubSurfaces,  Part of Total Building Area
 Zone Information, RETURN_PLENUM,0.0,0.00,0.00,0.00,15.25,7.60,2.70,1,1,1,0.00,30.50,0.00,15.20,2.40,3.00,0.61,283.20,Simple,Simple,463.60,54.84,54.84,0.00,10,0,0,Yes
 Zone Information, CLASSROOM_SOUTH,0.0,0.00,0.00,0.00,15.25,1.71,1.20,1,1,1,0.00,30.50,0.00,3.70,0.00,2.40,2.44,239.25,Simple,Simple,99.16,73.20,51.39,21.81,6,2,4,Yes
 Zone Information, CLASSROOM_EAST,0.0,0.00,0.00,0.00,28.95,7.62,1.20,1,1,1,26.80,30.50,0.00,15.20,0.00,2.40,2.44,103.31,Simple,Simple,42.74,36.48,27.36,9.12,6,1,0,Yes
 Zone Information, CLASSROOM_NORTH,0.0,0.00,0.00,0.00,15.25,13.54,1.20,1,1,1,0.00,30.50,11.60,15.20,0.00,2.40,2.44,239.25,Simple,Simple,96.48,73.20,52.35,20.85,6,2,0,Yes
 Zone Information, CLASSROOM_WEST,0.0,0.00,0.00,0.00,1.55,7.62,1.20,1,1,1,0.00,3.70,0.00,15.20,0.00,2.40,2.44,103.31,Simple,Simple,42.74,36.48,27.36,9.12,6,1,0,Yes
 Zone Information, CORRIDOR,0.0,0.00,0.00,0.00,15.25,7.65,1.20,1,1,1,3.70,26.80,3.70,11.60,0.00,2.40,2.44,447.68,Simple,Simple,182.49,0.00,0.00,0.00,6,0,0,Yes
! <Zone Internal Gains Nominal>,Zone Name, Floor Area {m2},# Occupants,Area per Occupant {m2/person},Occupant per Area {person/m2},Interior Lighting {W/m2},Electric Load {W/m2},Gas Load {W/m2},Other Load {W/m2},Hot Water Eq {W/m2},Steam Equipment {W/m2},Sum Loads per Area {W/m2},Outdoor Controlled Baseboard Heat
 Zone Internal Gains Nominal, RETURN_PLENUM,463.60,0.0,N/A,0.000,0.000,0.000,0.000,0.000,0.000,0.000,0.000,No
 Zone Internal Gains Nominal, CLASSROOM_SOUTH,99.16,30.0,3.305,0.303,15.974,10.649,0.000,0.000,0.000,0.000,26.624,No
 Zone Internal Gains Nominal, CLASSROOM_EAST,42.74,30.0,1.425,0.702,16.006,10.670,0.000,0.000,0.000,0.000,26.676,No
 Zone Internal Gains Nominal, CLASSROOM_NORTH,96.48,30.0,3.216,0.311,16.418,10.945,0.000,0.000,0.000,0.000,27.363,No
 Zone Internal Gains Nominal, CLASSROOM_WEST,42.74,30.0,1.425,0.702,16.006,10.670,0.000,0.000,0.000,0.000,26.676,No
 Zone Internal Gains Nominal, CORRIDOR,182.49,20.0,9.125,0.110,16.242,10.828,0.000,0.000,0.000,0.000,27.070,No
! <People Internal Gains Nominal>,Name,Schedule Name,Zone Name,Zone Floor Area {m2},# Zone Occupants,Number of People {},People/Floor Area {person/m2},Floor Area per person {m2/person},Fraction Radiant,Fraction Convected,Sensible Fraction Calculation,Activity level,ASHRAE 55 Warnings,Carbon Dioxide Generation Rate,Nominal Minimum Number of People,Nominal Maximum Number of People
 People Internal Gains Nominal, SPACE1-1 PEOPLE 1,OCCUPY-1,CLASSROOM_SOUTH,99.16,30.0,30.0,0.303,3.305,0.300,0.700,AutoCalculate,ACTSCHD,No,3.8200E-008,0,30
 People Internal Gains Nominal, SPACE2-1 PEOPLE 1,OCCUPY-1,CLASSROOM_EAST,42.74,30.0,30.0,0.702,1.425,0.300,0.700,AutoCalculate,ACTSCHD,No,3.8200E-008,0,30
 People Internal Gains Nominal, SPACE3-1 PEOPLE 1,OCCUPY-1,CLASSROOM_NORTH,96.48,30.0,30.0,0.311,3.216,0.300,0.700,AutoCalculate,ACTSCHD,No,3.8200E-008,0,30
 People Internal Gains Nominal, SPACE4-1 PEOPLE 1,OCCUPY-1,CLASSROOM_WEST,42.74,30.0,30.0,0.702,1.425,0.300,0.700,AutoCalculate,ACTSCHD,No,3.8200E-008,0,30
 People Internal Gains Nominal, SPACE5-1 PEOPLE 1,OCCUPY-1,CORRIDOR,182.49,20.0,20.0,0.110,9.125,0.300,0.700,AutoCalculate,ACTSCHD,No,3.8200E-008,0,20
! <Lights Internal Gains Nominal>,Name,Schedule Name,Zone Name,Zone Floor Area {m2},# Zone Occupants,Lighting Level {W},Lights/Floor Area {W/m2},Lights per person {W/person},Fraction Return Air,Fraction Radiant,Fraction Short Wave,Fraction Convected,Fraction Replaceable,End-Use Category,Nominal Minimum Lighting Level {W},Nominal Maximum Lighting Level {W}
 Lights Internal Gains Nominal, SPACE1-1 LIGHTS 1,LIGHTS-1,CLASSROOM_SOUTH,99.16,30.0,1584.000,15.974,52.800,0.200,0.590,0.200,1.000E-002,0.000,GeneralLights,79.200,1584.000
 Lights Internal Gains Nominal, SPACE2-1 LIGHTS 1,LIGHTS-1,CLASSROOM_EAST,42.74,30.0,684.000,16.006,22.800,0.200,0.590,0.200,1.000E-002,0.000,GeneralLights,34.200,684.000
 Lights Internal Gains Nominal, SPACE3-1 LIGHTS 1,LIGHTS-1,CLASSROOM_NORTH,96.48,30.0,1584.000,16.418,52.800,0.200,0.590,0.200,1.000E-002,0.000,GeneralLights,79.200,1584.000
 Lights Internal Gains Nominal, SPACE4-1 LIGHTS 1,LIGHTS-1,CLASSROOM_WEST,42.74,30.0,684.000,16.006,22.800,0.200,0.590,0.200,1.000E-002,0.000,GeneralLights,34.200,684.000
 Lights Internal Gains Nominal, SPACE5-1 LIGHTS 1,LIGHTS-1,CORRIDOR,182.49,20.0,2964.000,16.242,148.200,0.200,0.590,0.200,1.000E-002,0.000,GeneralLights,148.200,2964.000
! <ElectricEquipment Internal Gains Nominal>,Name,Schedule Name,Zone Name,Zone Floor Area {m2},# Zone Occupants,Equipment Level {W},Equipment/Floor Area {W/m2},Equipment per person {W/person},Fraction Latent,Fraction Radiant,Fraction Lost,Fraction Convected,End-Use SubCategory,Nominal Minimum Equipment Level {W},Nominal Maximum Equipment Level {W}
 ElectricEquipment Internal Gains Nominal, SPACE1-1 ELECEQ 1,EQUIP-1,CLASSROOM_SOUTH,99.16,30.0,1056.000,10.649,35.200,0.000,0.300,0.000,0.700,General,21.120,950.400
 ElectricEquipment Internal Gains Nominal, SPACE2-1 ELECEQ 1,EQUIP-1,CLASSROOM_EAST,42.74,30.0,456.000,10.670,15.200,0.000,0.300,0.000,0.700,General,9.120,410.400
 ElectricEquipment Internal Gains Nominal, SPACE3-1 ELECEQ 1,EQUIP-1,CLASSROOM_NORTH,96.48,30.0,1056.000,10.945,35.200,0.000,0.300,0.000,0.700,General,21.120,950.400
 ElectricEquipment Internal Gains Nominal, SPACE4-1 ELECEQ 1,EQUIP-1,CLASSROOM_WEST,42.74,30.0,456.000,10.670,15.200,0.000,0.300,0.000,0.700,General,9.120,410.400
 ElectricEquipment Internal Gains Nominal, SPACE5-1 ELECEQ 1,EQUIP-1,CORRIDOR,182.49,20.0,1976.000,10.828,98.800,0.000,0.300,0.000,0.700,General,39.520,1778.400
! <Solar View Factor Information>
! <Solar View Factor - Zone/Enclosure Information>,Zone/Enclosure Name,Number of Surfaces
! <Solar View Factor - Surface Information>,Surface Name,Surface Class,Area {m2},Azimuth,Tilt,Solar Absorbtance,#Sides,Vertices
! <Solar View Factor / Interchange Type>,Surface Name(s)
! <Solar View Factor>,Surface Name,Surface Class,Row Sum,View Factors for each Surface
Solar View Factor - Zone/Enclosure Information,RETURN_PLENUM,10
Solar View Factor - Surface Information,WALL-1PF,Wall,18.3000,180.0000,90.0000,0.7500,4,0.0000,0.0000,3.0000,0.0000,0.0000,2.4000,30.5000,0.0000,2.4000,30.5000,0.0000,3.0000
Solar View Factor - Surface Information,WALL-1PR,Wall,9.1200,90.0000,90.0000,0.7500,4,30.5000,0.0000,3.0000,30.5000,0.0000,2.4000,30.5000,15.2000,2.4000,30.5000,15.2000,3.0000
Solar View Factor - Surface Information,WALL-1PB,Wall,18.3000,0.0000,90.0000,0.7500,4,30.5000,15.2000,3.0000,30.5000,15.2000,2.4000,0.0000,15.2000,2.4000,0.0000,15.2000,3.0000
Solar View Factor - Surface Information,WALL-1PL,Wall,9.1200,270.0000,90.0000,0.7500,4,0.0000,15.2000,3.0000,0.0000,15.2000,2.4000,0.0000,0.0000,2.4000,0.0000,0.0000,3.0000
Solar View Factor - Surface Information,C1-1P,Floor,99.1600,0.0000,180.0000,0.6500,4,26.8000,3.7000,2.4000,30.5000,0.0000,2.4000,0.0000,0.0000,2.4000,3.7000,3.7000,2.4000
Solar View Factor - Surface Information,C2-1P,Floor,42.7350,270.0000,180.0000,0.6500,4,26.8000,11.6000,2.4000,30.5000,15.2000,2.4000,30.5000,0.0000,2.4000,26.8000,3.7000,2.4000
Solar View Factor - Surface Information,C3-1P,Floor,96.4800,44.2152,180.0000,0.6500,4,26.8000,11.6000,2.4000,3.7000,11.6000,2.4000,0.0000,15.2000,2.4000,30.5000,15.2000,2.4000
Solar View Factor - Surface Information,C4-1P,Floor,42.7350,90.0000,180.0000,0.6500,4,3.7000,3.7000,2.4000,0.0000,0.0000,2.4000,0.0000,15.2000,2.4000,3.7000,11.6000,2.4000
Solar View Factor - Surface Information,C5-1P,Floor,182.4900,0.0000,180.0000,0.6500,4,26.8000,11.6000,2.4000,26.8000,3.7000,2.4000,3.7000,3.7000,2.4000,3.7000,11.6000,2.4000
Solar View Factor - Surface Information,TOP-1,Roof,463.6000,180.0000,0.0000,0.7800,4,0.0000,15.2000,3.0000,0.0000,0.0000,3.0000,30.5000,0.0000,3.0000,30.5000,15.2000,3.0000
Approximate or User Input Solar ViewFactors,To Surface,Surface Class,RowSum,WALL-1PF,WALL-1PR,WALL-1PB,WALL-1PL,C1-1P,C2-1P,C3-1P,C4-1P,C5-1P,TOP-1
Solar View Factor,WALL-1PF,Wall,1.0000,0.0000,9.4631E-003,1.8989E-002,9.4631E-003,0.1029,4.4343E-002,0.1001,4.4343E-002,0.1894,0.4810
Solar View Factor,WALL-1PR,Wall,1.0000,1.8809E-002,0.0000,1.8809E-002,9.3738E-003,0.1019,4.3924E-002,9.9165E-002,4.3924E-002,0.1876,0.4765
Solar View Factor,WALL-1PB,Wall,1.0000,1.8989E-002,9.4631E-003,0.0000,9.4631E-003,0.1029,4.4343E-002,0.1001,4.4343E-002,0.1894,0.4810
Solar View Factor,WALL-1PL,Wall,1.0000,1.8809E-002,9.3738E-003,1.8809E-002,0.0000,0.1019,4.3924E-002,9.9165E-002,4.3924E-002,0.1876,0.4765
Solar View Factor,C1-1P,Floor,1.0000,3.5298E-002,1.7591E-002,3.5298E-002,1.7591E-002,0.0000,0.0000,0.0000,0.0000,0.0000,0.8942
Solar View Factor,C2-1P,Floor,1.0000,3.5298E-002,1.7591E-002,3.5298E-002,1.7591E-002,0.0000,0.0000,0.0000,0.0000,0.0000,0.8942
Solar View Factor,C3-1P,Floor,1.0000,3.5298E-002,1.7591E-002,3.5298E-002,1.7591E-002,0.0000,0.0000,0.0000,0.0000,0.0000,0.8942
Solar View Factor,C4-1P,Floor,1.0000,3.5298E-002,1.7591E-002,3.5298E-002,1.7591E-002,0.0000,0.0000,0.0000,0.0000,0.0000,0.8942
Solar View Factor,C5-1P,Floor,1.0000,3.5298E-002,1.7591E-002,3.5298E-002,1.7591E-002,0.0000,0.0000,0.0000,0.0000,0.0000,0.8942
Solar View Factor,TOP-1,Roof,1.0000,3.5298E-002,1.7591E-002,3.5298E-002,1.7591E-002,0.1913,8.2430E-002,0.1861,8.2430E-002,0.3520,0.0000
Final Solar ViewFactors,To Surface,Surface Class,RowSum,WALL-1PF,WALL-1PR,WALL-1PB,WALL-1PL,C1-1P,C2-1P,C3-1P,C4-1P,C5-1P,TOP-1
Solar View Factor,WALL-1PF,Wall,1.0002,0.0000,4.3376E-003,8.7573E-003,4.3376E-003,0.1051,4.5295E-002,0.1023,4.5295E-002,0.1934,0.4914
Solar View Factor,WALL-1PR,Wall,1.0002,8.7036E-003,0.0000,8.7036E-003,4.3109E-003,0.1046,4.5097E-002,0.1018,4.5097E-002,0.1926,0.4892
Solar View Factor,WALL-1PB,Wall,1.0002,8.7573E-003,4.3376E-003,0.0000,4.3376E-003,0.1051,4.5295E-002,0.1023,4.5295E-002,0.1934,0.4914
Solar View Factor,WALL-1PL,Wall,1.0002,8.7036E-003,4.3109E-003,8.7036E-003,0.0000,0.1046,4.5097E-002,0.1018,4.5097E-002,0.1926,0.4892
Solar View Factor,C1-1P,Floor,1.0000,1.9396E-002,9.6240E-003,1.9396E-002,9.6240E-003,0.0000,0.0000,0.0000,0.0000,0.0000,0.9419
Solar View Factor,C2-1P,Floor,1.0000,1.9396E-002,9.6240E-003,1.9396E-002,9.6240E-003,0.0000,0.0000,0.0000,0.0000,0.0000,0.9419
Solar View Factor,C3-1P,Floor,1.0000,1.9396E-002,9.6240E-003,1.9396E-002,9.6240E-003,0.0000,0.0000,0.0000,0.0000,0.0000,0.9419
Solar View Factor,C4-1P,Floor,1.0000,1.9396E-002,9.6240E-003,1.9396E-002,9.6240E-003,0.0000,0.0000,0.0000,0.0000,0.0000,0.9419
Solar View Factor,C5-1P,Floor,1.0000,1.9396E-002,9.6240E-003,1.9396E-002,9.6240E-003,0.0000,0.0000,0.0000,0.0000,0.0000,0.9419
Solar View Factor,TOP-1,Roof,1.0000,1.9396E-002,9.6240E-003,1.9396E-002,9.6240E-003,0.2015,8.6830E-002,0.1960,8.6830E-002,0.3708,0.0000
Solar View Factor - Zone/Enclosure Information,CLASSROOM_SOUTH,8
Solar View Factor - Surface Information,FRONT-1,Wall,51.3900,180.0000,90.0000,0.7500,4,0.0000,0.0000,2.4000,0.0000,0.0000,0.0000,30.5000,0.0000,0.0000,30.5000,0.0000,2.4000
Solar View Factor - Surface Information,WF-1,Window,16.5600,180.0000,90.0000,0.0000,4,3.0000,0.0000,2.1000,3.0000,0.0000,0.9000,16.8000,0.0000,0.9000,16.8000,0.0000,2.1000
Solar View Factor - Surface Information,DF-1,Window,5.2500,180.0000,90.0000,0.0000,4,21.3000,0.0000,2.1000,21.3000,0.0000,0.0000,23.8000,0.0000,0.0000,23.8000,0.0000,2.1000
Solar View Factor - Surface Information,SB12,Wall,12.5582,45.0000,90.0000,0.7500,4,30.5000,0.0000,2.4000,30.5000,0.0000,0.0000,26.8000,3.7000,0.0000,26.8000,3.7000,2.4000
Solar View Factor - Surface Information,SB14,Wall,12.5582,315.0000,90.0000,0.7500,4,3.7000,3.7000,2.4000,3.7000,3.7000,0.0000,0.0000,0.0000,0.0000,0.0000,0.0000,2.4000
Solar View Factor - Surface Information,SB15,Wall,55.4400,0.0000,90.0000,0.7500,4,26.8000,3.7000,2.4000,26.8000,3.7000,0.0000,3.7000,3.7000,0.0000,3.7000,3.7000,2.4000
Solar View Factor - Surface Information,F1-1,Floor,99.1600,0.0000,180.0000,0.6500,4,26.8000,3.7000,0.0000,30.5000,0.0000,0.0000,0.0000,0.0000,0.0000,3.7000,3.7000,0.0000
Solar View Factor - Surface Information,C1-1,Roof,99.1600,180.0000,0.0000,0.6500,4,3.7000,3.7000,2.4000,0.0000,0.0000,2.4000,30.5000,0.0000,2.4000,26.8000,3.7000,2.4000
Approximate or User Input Solar ViewFactors,To Surface,Surface Class,RowSum,FRONT-1,WF-1,DF-1,SB12,SB14,SB15,F1-1,C1-1
Solar View Factor,FRONT-1,Wall,1.0000,0.0000,0.0000,0.0000,4.5031E-002,4.5031E-002,0.1988,0.3556,0.3556
Solar View Factor,WF-1,Window,1.0000,0.0000,0.0000,0.0000,4.5031E-002,4.5031E-002,0.1988,0.3556,0.3556
Solar View Factor,DF-1,Window,1.0000,0.0000,0.0000,0.0000,4.5031E-002,4.5031E-002,0.1988,0.3556,0.3556
Solar View Factor,SB12,Wall,1.0000,0.1514,4.8775E-002,1.5463E-002,0.0000,3.6988E-002,0.1633,0.2921,0.2921
Solar View Factor,SB14,Wall,1.0000,0.1514,4.8775E-002,1.5463E-002,3.6988E-002,0.0000,0.1633,0.2921,0.2921
Solar View Factor,SB15,Wall,1.0000,0.1732,5.5826E-002,1.7698E-002,4.2335E-002,4.2335E-002,0.0000,0.3343,0.3343
Solar View Factor,F1-1,Floor,1.0000,0.2032,6.5476E-002,2.0758E-002,4.9654E-002,4.9654E-002,0.2192,0.0000,0.3921
Solar View Factor,C1-1,Roof,1.0000,0.2032,6.5476E-002,2.0758E-002,4.9654E-002,4.9654E-002,0.2192,0.3921,0.0000
Final Solar ViewFactors,To Surface,Surface Class,RowSum,FRONT-1,WF-1,DF-1,SB12,SB14,SB15,F1-1,C1-1
Solar View Factor,FRONT-1,Wall,1.0003,0.0000,0.0000,0.0000,3.4233E-002,3.4233E-002,0.1708,0.3805,0.3805
Solar View Factor,WF-1,Window,1.0003,0.0000,0.0000,0.0000,3.4233E-002,3.4233E-002,0.1708,0.3805,0.3805
Solar View Factor,DF-1,Window,1.0003,0.0000,0.0000,0.0000,3.4233E-002,3.4233E-002,0.1708,0.3805,0.3805
Solar View Factor,SB12,Wall,1.0001,0.1401,4.5142E-002,1.4311E-002,0.0000,2.7867E-002,0.1403,0.3162,0.3162
Solar View Factor,SB14,Wall,1.0001,0.1401,4.5142E-002,1.4311E-002,2.7867E-002,0.0000,0.1403,0.3162,0.3162
Solar View Factor,SB15,Wall,1.0002,0.1583,5.1012E-002,1.6172E-002,3.1774E-002,3.1774E-002,0.0000,0.3556,0.3556
Solar View Factor,F1-1,Floor,0.9998,0.1972,6.3549E-002,2.0147E-002,4.0049E-002,4.0049E-002,0.1988,0.0000,0.4400
Solar View Factor,C1-1,Roof,0.9998,0.1972,6.3549E-002,2.0147E-002,4.0049E-002,4.0049E-002,0.1988,0.4400,0.0000
Solar View Factor - Zone/Enclosure Information,CLASSROOM_EAST,7
Solar View Factor - Surface Information,RIGHT-1,Wall,27.3600,90.0000,90.0000,0.7500,4,30.5000,0.0000,2.4000,30.5000,0.0000,0.0000,30.5000,15.2000,0.0000,30.5000,15.2000,2.4000
Solar View Factor - Surface Information,WR-1,Window,9.1200,90.0000,90.0000,0.0000,4,30.5000,3.8000,2.1000,30.5000,3.8000,0.9000,30.5000,11.4000,0.9000,30.5000,11.4000,2.1000
Solar View Factor - Surface Information,SB21,Wall,12.5582,225.0000,90.0000,0.7500,4,26.8000,3.7000,2.4000,26.8000,3.7000,0.0000,30.5000,0.0000,0.0000,30.5000,0.0000,2.4000
Solar View Factor - Surface Information,SB23,Wall,12.3897,315.7848,90.0000,0.7500,4,30.5000,15.2000,2.4000,30.5000,15.2000,0.0000,26.8000,11.6000,0.0000,26.8000,11.6000,2.4000
Solar View Factor - Surface Information,SB25,Wall,18.9600,270.0000,90.0000,0.7500,4,26.8000,11.6000,2.4000,26.8000,11.6000,0.0000,26.8000,3.7000,0.0000,26.8000,3.7000,2.4000
Solar View Factor - Surface Information,F2-1,Floor,42.7350,270.0000,180.0000,0.6500,4,26.8000,11.6000,0.0000,30.5000,15.2000,0.0000,30.5000,0.0000,0.0000,26.8000,3.7000,0.0000
Solar View Factor - Surface Information,C2-1,Roof,42.7350,90.0000,0.0000,0.6500,4,26.8000,3.7000,2.4000,30.5000,0.0000,2.4000,30.5000,15.2000,2.4000,26.8000,11.6000,2.4000
Approximate or User Input Solar ViewFactors,To Surface,Surface Class,RowSum,RIGHT-1,WR-1,SB21,SB23,SB25,F2-1,C2-1
Solar View Factor,RIGHT-1,Wall,1.0000,0.0000,0.0000,9.7066E-002,9.5763E-002,0.1465,0.3303,0.3303
Solar View Factor,WR-1,Window,1.0000,0.0000,0.0000,9.7066E-002,9.5763E-002,0.1465,0.3303,0.3303
Solar View Factor,SB21,Wall,1.0000,0.1785,5.9491E-002,0.0000,8.0820E-002,0.1237,0.2788,0.2788
Solar View Factor,SB23,Wall,1.0000,0.1783,5.9426E-002,8.1829E-002,0.0000,0.1235,0.2785,0.2785
Solar View Factor,SB25,Wall,1.0000,0.1863,6.2084E-002,8.5489E-002,8.4342E-002,0.0000,0.2909,0.2909
Solar View Factor,F2-1,Floor,1.0000,0.2222,7.4072E-002,0.1020,0.1006,0.1540,0.0000,0.3471
Solar View Factor,C2-1,Roof,1.0000,0.2222,7.4072E-002,0.1020,0.1006,0.1540,0.3471,0.0000
Final Solar ViewFactors,To Surface,Surface Class,RowSum,RIGHT-1,WR-1,SB21,SB23,SB25,F2-1,C2-1
Solar View Factor,RIGHT-1,Wall,1.0002,0.0000,0.0000,8.0758E-002,7.9598E-002,0.1268,0.3565,0.3565
Solar View Factor,WR-1,Window,1.0002,0.0000,0.0000,8.0758E-002,7.9598E-002,0.1268,0.3565,0.3565
Solar View Factor,SB21,Wall,1.0002,0.1759,5.8648E-002,0.0000,6.5543E-002,0.1047,0.2977,0.2977
Solar View Factor,SB23,Wall,1.0002,0.1758,5.8591E-002,6.6434E-002,0.0000,0.1046,0.2974,0.2974
Solar View Factor,SB25,Wall,1.0002,0.1830,6.0985E-002,6.9327E-002,6.8327E-002,0.0000,0.3093,0.3093
Solar View Factor,F2-1,Floor,0.9998,0.2283,7.6089E-002,8.7482E-002,8.6227E-002,0.1372,0.0000,0.3845
Solar View Factor,C2-1,Roof,0.9998,0.2283,7.6089E-002,8.7482E-002,8.6227E-002,0.1372,0.3845,0.0000
Solar View Factor - Zone/Enclosure Information,CLASSROOM_NORTH,8
Solar View Factor - Surface Information,BACK-1,Wall,52.3500,0.0000,90.0000,0.7500,4,30.5000,15.2000,2.4000,30.5000,15.2000,0.0000,0.0000,15.2000,0.0000,0.0000,15.2000,2.4000
Solar View Factor - Surface Information,WB-1,Window,16.4400,0.0000,90.0000,0.0000,4,27.4000,15.2000,2.1000,27.4000,15.2000,0.9000,13.7000,15.2000,0.9000,13.7000,15.2000,2.1000
Solar View Factor - Surface Information,DB-1,Window,4.4100,0.0000,90.0000,0.0000,4,9.1000,15.2000,2.1000,9.1000,15.2000,0.0000,7.0000,15.2000,0.0000,7.0000,15.2000,2.1000
Solar View Factor - Surface Information,SB32,Wall,12.3897,135.7848,90.0000,0.7500,4,26.8000,11.6000,2.4000,26.8000,11.6000,0.0000,30.5000,15.2000,0.0000,30.5000,15.2000,2.4000
Solar View Factor - Surface Information,SB34,Wall,12.3897,224.2152,90.0000,0.7500,4,0.0000,15.2000,2.4000,0.0000,15.2000,0.0000,3.7000,11.6000,0.0000,3.7000,11.6000,2.4000
Solar View Factor - Surface Information,SB35,Wall,55.4400,180.0000,90.0000,0.7500,4,3.7000,11.6000,2.4000,3.7000,11.6000,0.0000,26.8000,11.6000,0.0000,26.8000,11.6000,2.4000
Solar View Factor - Surface Information,F3-1,Floor,96.4800,44.2152,180.0000,0.6500,4,26.8000,11.6000,0.0000,3.7000,11.6000,0.0000,0.0000,15.2000,0.0000,30.5000,15.2000,0.0000
Solar View Factor - Surface Information,C3-1,Roof,96.4800,224.2152,0.0000,0.6500,4,30.5000,15.2000,2.4000,0.0000,15.2000,2.4000,3.7000,11.6000,2.4000,26.8000,11.6000,2.4000
Approximate or User Input Solar ViewFactors,To Surface,Surface Class,RowSum,BACK-1,WB-1,DB-1,SB32,SB34,SB35,F3-1,C3-1
Solar View Factor,BACK-1,Wall,1.0000,0.0000,0.0000,0.0000,4.5354E-002,4.5354E-002,0.2029,0.3532,0.3532
Solar View Factor,WB-1,Window,1.0000,0.0000,0.0000,0.0000,4.5354E-002,4.5354E-002,0.2029,0.3532,0.3532
Solar View Factor,DB-1,Window,1.0000,0.0000,0.0000,0.0000,4.5354E-002,4.5354E-002,0.2029,0.3532,0.3532
Solar View Factor,SB32,Wall,1.0000,0.1567,4.9223E-002,1.3204E-002,0.0000,3.7096E-002,0.1660,0.2889,0.2889
Solar View Factor,SB34,Wall,1.0000,0.1567,4.9223E-002,1.3204E-002,3.7096E-002,0.0000,0.1660,0.2889,0.2889
Solar View Factor,SB35,Wall,1.0000,0.1799,5.6507E-002,1.5158E-002,4.2585E-002,4.2585E-002,0.0000,0.3316,0.3316
Solar View Factor,F3-1,Floor,1.0000,0.2095,6.5786E-002,1.7647E-002,4.9579E-002,4.9579E-002,0.2218,0.0000,0.3861
Solar View Factor,C3-1,Roof,1.0000,0.2095,6.5786E-002,1.7647E-002,4.9579E-002,4.9579E-002,0.2218,0.3861,0.0000
Final Solar ViewFactors,To Surface,Surface Class,RowSum,BACK-1,WB-1,DB-1,SB32,SB34,SB35,F3-1,C3-1
Solar View Factor,BACK-1,Wall,1.0003,0.0000,0.0000,0.0000,3.4682E-002,3.4682E-002,0.1760,0.3775,0.3775
Solar View Factor,WB-1,Window,1.0003,0.0000,0.0000,0.0000,3.4682E-002,3.4682E-002,0.1760,0.3775,0.3775
Solar View Factor,DB-1,Window,1.0003,0.0000,0.0000,0.0000,3.4682E-002,3.4682E-002,0.1760,0.3775,0.3775
Solar View Factor,SB32,Wall,1.0001,0.1465,4.6020E-002,1.2345E-002,0.0000,2.8053E-002,0.1437,0.3117,0.3117
Solar View Factor,SB34,Wall,1.0001,0.1465,4.6020E-002,1.2345E-002,2.8053E-002,0.0000,0.1437,0.3117,0.3117
Solar View Factor,SB35,Wall,1.0002,0.1661,5.2177E-002,1.3996E-002,3.2106E-002,3.2106E-002,0.0000,0.3518,0.3518
Solar View Factor,F3-1,Floor,0.9998,0.2048,6.4321E-002,1.7254E-002,4.0034E-002,4.0034E-002,0.2022,0.0000,0.4312
Solar View Factor,C3-1,Roof,0.9998,0.2048,6.4321E-002,1.7254E-002,4.0034E-002,4.0034E-002,0.2022,0.4312,0.0000
Solar View Factor - Zone/Enclosure Information,CLASSROOM_WEST,7
Solar View Factor - Surface Information,LEFT-1,Wall,27.3600,270.0000,90.0000,0.7500,4,0.0000,15.2000,2.4000,0.0000,15.2000,0.0000,0.0000,0.0000,0.0000,0.0000,0.0000,2.4000
Solar View Factor - Surface Information,WL-1,Window,9.1200,270.0000,90.0000,0.0000,4,0.0000,11.4000,2.1000,0.0000,11.4000,0.9000,0.0000,3.8000,0.9000,0.0000,3.8000,2.1000
Solar View Factor - Surface Information,SB41,Wall,12.5582,135.0000,90.0000,0.7500,4,0.0000,0.0000,2.4000,0.0000,0.0000,0.0000,3.7000,3.7000,0.0000,3.7000,3.7000,2.4000
Solar View Factor - Surface Information,SB43,Wall,12.3897,44.2152,90.0000,0.7500,4,3.7000,11.6000,2.4000,3.7000,11.6000,0.0000,0.0000,15.2000,0.0000,0.0000,15.2000,2.4000
Solar View Factor - Surface Information,SB45,Wall,18.9600,90.0000,90.0000,0.7500,4,3.7000,3.7000,2.4000,3.7000,3.7000,0.0000,3.7000,11.6000,0.0000,3.7000,11.6000,2.4000
Solar View Factor - Surface Information,F4-1,Floor,42.7350,90.0000,180.0000,0.6500,4,3.7000,3.7000,0.0000,0.0000,0.0000,0.0000,0.0000,15.2000,0.0000,3.7000,11.6000,0.0000
Solar View Factor - Surface Information,C4-1,Roof,42.7350,270.0000,0.0000,0.6500,4,3.7000,11.6000,2.4000,0.0000,15.2000,2.4000,0.0000,0.0000,2.4000,3.7000,3.7000,2.4000
Approximate or User Input Solar ViewFactors,To Surface,Surface Class,RowSum,LEFT-1,WL-1,SB41,SB43,SB45,F4-1,C4-1
Solar View Factor,LEFT-1,Wall,1.0000,0.0000,0.0000,9.7066E-002,9.5763E-002,0.1465,0.3303,0.3303
Solar View Factor,WL-1,Window,1.0000,0.0000,0.0000,9.7066E-002,9.5763E-002,0.1465,0.3303,0.3303
Solar View Factor,SB41,Wall,1.0000,0.1785,5.9491E-002,0.0000,8.0820E-002,0.1237,0.2788,0.2788
Solar View Factor,SB43,Wall,1.0000,0.1783,5.9426E-002,8.1829E-002,0.0000,0.1235,0.2785,0.2785
Solar View Factor,SB45,Wall,1.0000,0.1863,6.2084E-002,8.5489E-002,8.4342E-002,0.0000,0.2909,0.2909
Solar View Factor,F4-1,Floor,1.0000,0.2222,7.4072E-002,0.1020,0.1006,0.1540,0.0000,0.3471
Solar View Factor,C4-1,Roof,1.0000,0.2222,7.4072E-002,0.1020,0.1006,0.1540,0.3471,0.0000
Final Solar ViewFactors,To Surface,Surface Class,RowSum,LEFT-1,WL-1,SB41,SB43,SB45,F4-1,C4-1
Solar View Factor,LEFT-1,Wall,1.0002,0.0000,0.0000,8.0758E-002,7.9598E-002,0.1268,0.3565,0.3565
Solar View Factor,WL-1,Window,1.0002,0.0000,0.0000,8.0758E-002,7.9598E-002,0.1268,0.3565,0.3565
Solar View Factor,SB41,Wall,1.0002,0.1759,5.8648E-002,0.0000,6.5543E-002,0.1047,0.2977,0.2977
Solar View Factor,SB43,Wall,1.0002,0.1758,5.8591E-002,6.6434E-002,0.0000,0.1046,0.2974,0.2974
Solar View Factor,SB45,Wall,1.0002,0.1830,6.0985E-002,6.9327E-002,6.8327E-002,0.0000,0.3093,0.3093
Solar View Factor,F4-1,Floor,0.9998,0.2283,7.6089E-002,8.7482E-002,8.6227E-002,0.1372,0.0000,0.3845
Solar View Factor,C4-1,Roof,0.9998,0.2283,7.6089E-002,8.7482E-002,8.6227E-002,0.1372,0.3845,0.0000
Solar View Factor - Zone/Enclosure Information,CORRIDOR,6
Solar View Factor - Surface Information,SB51,Wall,55.4400,180.0000,90.0000,0.7500,4,3.7000,3.7000,2.4000,3.7000,3.7000,0.0000,26.8000,3.7000,0.0000,26.8000,3.7000,2.4000
Solar View Factor - Surface Information,SB52,Wall,18.9600,90.0000,90.0000,0.7500,4,26.8000,3.7000,2.4000,26.8000,3.7000,0.0000,26.8000,11.6000,0.0000,26.8000,11.6000,2.4000
Solar View Factor - Surface Information,SB53,Wall,55.4400,0.0000,90.0000,0.7500,4,26.8000,11.6000,2.4000,26.8000,11.6000,0.0000,3.7000,11.6000,0.0000,3.7000,11.6000,2.4000
Solar View Factor - Surface Information,SB54,Wall,18.9600,270.0000,90.0000,0.7500,4,3.7000,11.6000,2.4000,3.7000,11.6000,0.0000,3.7000,3.7000,0.0000,3.7000,3.7000,2.4000
Solar View Factor - Surface Information,F5-1,Floor,182.4900,0.0000,180.0000,0.6500,4,26.8000,11.6000,0.0000,26.8000,3.7000,0.0000,3.7000,3.7000,0.0000,3.7000,11.6000,0.0000
Solar View Factor - Surface Information,C5-1,Roof,182.4900,180.0000,0.0000,0.6500,4,3.7000,11.6000,2.4000,3.7000,3.7000,2.4000,26.8000,3.7000,2.4000,26.8000,11.6000,2.4000
Approximate or User Input Solar ViewFactors,To Surface,Surface Class,RowSum,SB51,SB52,SB53,SB54,F5-1,C5-1
Solar View Factor,SB51,Wall,1.0000,0.0000,4.1367E-002,0.1210,4.1367E-002,0.3982,0.3982
Solar View Factor,SB52,Wall,1.0000,0.1120,0.0000,0.1120,3.8317E-002,0.3688,0.3688
Solar View Factor,SB53,Wall,1.0000,0.1210,4.1367E-002,0.0000,4.1367E-002,0.3982,0.3982
Solar View Factor,SB54,Wall,1.0000,0.1120,3.8317E-002,0.1120,0.0000,0.3688,0.3688
Solar View Factor,F5-1,Floor,1.0000,0.1673,5.7231E-002,0.1673,5.7231E-002,0.0000,0.5508
Solar View Factor,C5-1,Roof,1.0000,0.1673,5.7231E-002,0.1673,5.7231E-002,0.5508,0.0000
Final Solar ViewFactors,To Surface,Surface Class,RowSum,SB51,SB52,SB53,SB54,F5-1,C5-1
Solar View Factor,SB51,Wall,1.0002,0.0000,2.6720E-002,8.3114E-002,2.6720E-002,0.4318,0.4318
Solar View Factor,SB52,Wall,1.0002,7.8131E-002,0.0000,7.8131E-002,2.5072E-002,0.4094,0.4094
Solar View Factor,SB53,Wall,1.0002,8.3114E-002,2.6720E-002,0.0000,2.6720E-002,0.4318,0.4318
Solar View Factor,SB54,Wall,1.0002,7.8131E-002,2.5072E-002,7.8131E-002,0.0000,0.4094,0.4094
Solar View Factor,F5-1,Floor,0.9999,0.1312,4.2537E-002,0.1312,4.2537E-002,0.0000,0.6525
Solar View Factor,C5-1,Roof,0.9999,0.1312,4.2537E-002,0.1312,4.2537E-002,0.6525,0.0000
! <Shadowing/Sun Position Calculations Annual Simulations>, Shading Calculation Method, Shading Calculation Update Frequency Method, Shading Calculation Update Frequency {days}, Maximum Figures in Shadow Overlap Calculations {}, Polygon Clipping Algorithm, Pixel Counting Resolution, Sky Diffuse Modeling Algorithm, Output External Shading Calculation Results, Disable Self-Shading Within Shading Zone Groups, Disable Self-Shading From Shading Zone Groups to Other Zones
Shadowing/Sun Position Calculations Annual Simulations,PolygonClipping,Periodic,20,15000,SutherlandHodgman,512,SimpleSkyDiffuseModeling,No,No,No
! <Surface View Factor and Grey Interchange Information>
! <View Factor - Zone/Enclosure Information>,Zone/Enclosure Name,Number of Surfaces
! <View Factor - Surface Information>,Surface Name,Surface Class,Area {m2},Azimuth,Tilt,Thermal Emissivity,#Sides,Vertices
! <View Factor / Grey Interchange Type>,Surface Name(s)
! <View Factor>,Surface Name,Surface Class,Row Sum,View Factors for each Surface
Surface View Factor - Zone/Enclosure Information,RETURN_PLENUM,10
Surface View Factor - Surface Information,WALL-1PF,Wall,18.3000,180.0000,90.0000,0.9000,4,0.0000,0.0000,3.0000,0.0000,0.0000,2.4000,30.5000,0.0000,2.4000,30.5000,0.0000,3.0000
Surface View Factor - Surface Information,WALL-1PR,Wall,9.1200,90.0000,90.0000,0.9000,4,30.5000,0.0000,3.0000,30.5000,0.0000,2.4000,30.5000,15.2000,2.4000,30.5000,15.2000,3.0000
Surface View Factor - Surface Information,WALL-1PB,Wall,18.3000,0.0000,90.0000,0.9000,4,30.5000,15.2000,3.0000,30.5000,15.2000,2.4000,0.0000,15.2000,2.4000,0.0000,15.2000,3.0000
Surface View Factor - Surface Information,WALL-1PL,Wall,9.1200,270.0000,90.0000,0.9000,4,0.0000,15.2000,3.0000,0.0000,15.2000,2.4000,0.0000,0.0000,2.4000,0.0000,0.0000,3.0000
Surface View Factor - Surface Information,C1-1P,Floor,99.1600,0.0000,180.0000,0.6500,4,26.8000,3.7000,2.4000,30.5000,0.0000,2.4000,0.0000,0.0000,2.4000,3.7000,3.7000,2.4000
Surface View Factor - Surface Information,C2-1P,Floor,42.7350,270.0000,180.0000,0.6500,4,26.8000,11.6000,2.4000,30.5000,15.2000,2.4000,30.5000,0.0000,2.4000,26.8000,3.7000,2.4000
Surface View Factor - Surface Information,C3-1P,Floor,96.4800,44.2152,180.0000,0.6500,4,26.8000,11.6000,2.4000,3.7000,11.6000,2.4000,0.0000,15.2000,2.4000,30.5000,15.2000,2.4000
Surface View Factor - Surface Information,C4-1P,Floor,42.7350,90.0000,180.0000,0.6500,4,3.7000,3.7000,2.4000,0.0000,0.0000,2.4000,0.0000,15.2000,2.4000,3.7000,11.6000,2.4000
Surface View Factor - Surface Information,C5-1P,Floor,182.4900,0.0000,180.0000,0.6500,4,26.8000,11.6000,2.4000,26.8000,3.7000,2.4000,3.7000,3.7000,2.4000,3.7000,11.6000,2.4000
Surface View Factor - Surface Information,TOP-1,Roof,463.6000,180.0000,0.0000,0.9000,4,0.0000,15.2000,3.0000,0.0000,0.0000,3.0000,30.5000,0.0000,3.0000,30.5000,15.2000,3.0000
Approximate or User Input ViewFactors,To Surface,Surface Class,RowSum,WALL-1PF,WALL-1PR,WALL-1PB,WALL-1PL,C1-1P,C2-1P,C3-1P,C4-1P,C5-1P,TOP-1
View Factor,WALL-1PF,Wall,1.0000,0.0000,9.4631E-003,1.8989E-002,9.4631E-003,0.1029,4.4343E-002,0.1001,4.4343E-002,0.1894,0.4810
View Factor,WALL-1PR,Wall,1.0000,1.8809E-002,0.0000,1.8809E-002,9.3738E-003,0.1019,4.3924E-002,9.9165E-002,4.3924E-002,0.1876,0.4765
View Factor,WALL-1PB,Wall,1.0000,1.8989E-002,9.4631E-003,0.0000,9.4631E-003,0.1029,4.4343E-002,0.1001,4.4343E-002,0.1894,0.4810
View Factor,WALL-1PL,Wall,1.0000,1.8809E-002,9.3738E-003,1.8809E-002,0.0000,0.1019,4.3924E-002,9.9165E-002,4.3924E-002,0.1876,0.4765
View Factor,C1-1P,Floor,1.0000,3.5298E-002,1.7591E-002,3.5298E-002,1.7591E-002,0.0000,0.0000,0.0000,0.0000,0.0000,0.8942
View Factor,C2-1P,Floor,1.0000,3.5298E-002,1.7591E-002,3.5298E-002,1.7591E-002,0.0000,0.0000,0.0000,0.0000,0.0000,0.8942
View Factor,C3-1P,Floor,1.0000,3.5298E-002,1.7591E-002,3.5298E-002,1.7591E-002,0.0000,0.0000,0.0000,0.0000,0.0000,0.8942
View Factor,C4-1P,Floor,1.0000,3.5298E-002,1.7591E-002,3.5298E-002,1.7591E-002,0.0000,0.0000,0.0000,0.0000,0.0000,0.8942
View Factor,C5-1P,Floor,1.0000,3.5298E-002,1.7591E-002,3.5298E-002,1.7591E-002,0.0000,0.0000,0.0000,0.0000,0.0000,0.8942
View Factor,TOP-1,Roof,1.0000,3.5298E-002,1.7591E-002,3.5298E-002,1.7591E-002,0.1913,8.2430E-002,0.1861,8.2430E-002,0.3520,0.0000
Final ViewFactors,To Surface,Surface Class,RowSum,WALL-1PF,WALL-1PR,WALL-1PB,WALL-1PL,C1-1P,C2-1P,C3-1P,C4-1P,C5-1P,TOP-1
View Factor,WALL-1PF,Wall,1.0002,0.0000,4.3376E-003,8.7573E-003,4.3376E-003,0.1051,4.5295E-002,0.1023,4.5295E-002,0.1934,0.4914
View Factor,WALL-1PR,Wall,1.0002,8.7036E-003,0.0000,8.7036E-003,4.3109E-003,0.1046,4.5097E-002,0.1018,4.5097E-002,0.1926,0.4892
View Factor,WALL-1PB,Wall,1.0002,8.7573E-003,4.3376E-003,0.0000,4.3376E-003,0.1051,4.5295E-002,0.1023,4.5295E-002,0.1934,0.4914
View Factor,WALL-1PL,Wall,1.0002,8.7036E-003,4.3109E-003,8.7036E-003,0.0000,0.1046,4.5097E-002,0.1018,4.5097E-002,0.1926,0.4892
View Factor,C1-1P,Floor,1.0000,1.9396E-002,9.6240E-003,1.9396E-002,9.6240E-003,0.0000,0.0000,0.0000,0.0000,0.0000,0.9419
View Factor,C2-1P,Floor,1.0000,1.9396E-002,9.6240E-003,1.9396E-002,9.6240E-003,0.0000,0.0000,0.0000,0.0000,0.0000,0.9419
View Factor,C3-1P,Floor,1.0000,1.9396E-002,9.6240E-003,1.9396E-002,9.6240E-003,0.0000,0.0000,0.0000,0.0000,0.0000,0.9419
View Factor,C4-1P,Floor,1.0000,1.9396E-002,9.6240E-003,1.9396E-002,9.6240E-003,0.0000,0.0000,0.0000,0.0000,0.0000,0.9419
View Factor,C5-1P,Floor,1.0000,1.9396E-002,9.6240E-003,1.9396E-002,9.6240E-003,0.0000,0.0000,0.0000,0.0000,0.0000,0.9419
View Factor,TOP-1,Roof,1.0000,1.9396E-002,9.6240E-003,1.9396E-002,9.6240E-003,0.2015,8.6830E-002,0.1960,8.6830E-002,0.3708,0.0000
Script F Factors,X Surface,WALL-1PF,WALL-1PR,WALL-1PB,WALL-1PL,C1-1P,C2-1P,C3-1P,C4-1P,C5-1P,TOP-1
Script F Factor,WALL-1PF,4.1435E-003,5.5688E-003,1.1231E-002,5.5688E-003,6.9657E-002,3.0020E-002,6.7775E-002,3.0020E-002,0.1282,0.5480
Script F Factor,WALL-1PR,1.1174E-002,2.0503E-003,1.1174E-002,5.5406E-003,6.9384E-002,2.9902E-002,6.7508E-002,2.9902E-002,0.1277,0.5458
Script F Factor,WALL-1PB,1.1231E-002,5.5688E-003,4.1435E-003,5.5688E-003,6.9657E-002,3.0020E-002,6.7775E-002,3.0020E-002,0.1282,0.5480
Script F Factor,WALL-1PL,1.1174E-002,5.5406E-003,1.1174E-002,2.0503E-003,6.9384E-002,2.9902E-002,6.7508E-002,2.9902E-002,0.1277,0.5458
Script F Factor,C1-1P,1.2855E-002,6.3814E-003,1.2855E-002,6.3814E-003,8.6045E-003,3.7083E-003,8.3719E-003,3.7083E-003,1.5835E-002,0.5713
Script F Factor,C2-1P,1.2855E-002,6.3814E-003,1.2855E-002,6.3814E-003,8.6045E-003,3.7083E-003,8.3719E-003,3.7083E-003,1.5835E-002,0.5713
Script F Factor,C3-1P,1.2855E-002,6.3814E-003,1.2855E-002,6.3814E-003,8.6045E-003,3.7083E-003,8.3719E-003,3.7083E-003,1.5835E-002,0.5713
Script F Factor,C4-1P,1.2855E-002,6.3814E-003,1.2855E-002,6.3814E-003,8.6045E-003,3.7083E-003,8.3719E-003,3.7083E-003,1.5835E-002,0.5713
Script F Factor,C5-1P,1.2855E-002,6.3814E-003,1.2855E-002,6.3814E-003,8.6045E-003,3.7083E-003,8.3719E-003,3.7083E-003,1.5835E-002,0.5713
Script F Factor,TOP-1,2.1630E-002,1.0737E-002,2.1630E-002,1.0737E-002,0.1222,5.2662E-002,0.1189,5.2662E-002,0.2249,0.2640
Surface View Factor - Zone/Enclosure Information,CLASSROOM_SOUTH,8
Surface View Factor - Surface Information,FRONT-1,Wall,51.3900,180.0000,90.0000,0.9000,4,0.0000,0.0000,2.4000,0.0000,0.0000,0.0000,30.5000,0.0000,0.0000,30.5000,0.0000,2.4000
Surface View Factor - Surface Information,WF-1,Window,16.5600,180.0000,90.0000,0.8400,4,3.0000,0.0000,2.1000,3.0000,0.0000,0.9000,16.8000,0.0000,0.9000,16.8000,0.0000,2.1000
Surface View Factor - Surface Information,DF-1,Window,5.2500,180.0000,90.0000,0.8400,4,21.3000,0.0000,2.1000,21.3000,0.0000,0.0000,23.8000,0.0000,0.0000,23.8000,0.0000,2.1000
Surface View Factor - Surface Information,SB12,Wall,12.5582,45.0000,90.0000,0.9000,4,30.5000,0.0000,2.4000,30.5000,0.0000,0.0000,26.8000,3.7000,0.0000,26.8000,3.7000,2.4000
Surface View Factor - Surface Information,SB14,Wall,12.5582,315.0000,90.0000,0.9000,4,3.7000,3.7000,2.4000,3.7000,3.7000,0.0000,0.0000,0.0000,0.0000,0.0000,0.0000,2.4000
Surface View Factor - Surface Information,SB15,Wall,55.4400,0.0000,90.0000,0.9000,4,26.8000,3.7000,2.4000,26.8000,3.7000,0.0000,3.7000,3.7000,0.0000,3.7000,3.7000,2.4000
Surface View Factor - Surface Information,F1-1,Floor,99.1600,0.0000,180.0000,0.9000,4,26.8000,3.7000,0.0000,30.5000,0.0000,0.0000,0.0000,0.0000,0.0000,3.7000,3.7000,0.0000
Surface View Factor - Surface Information,C1-1,Roof,99.1600,180.0000,0.0000,0.6500,4,3.7000,3.7000,2.4000,0.0000,0.0000,2.4000,30.5000,0.0000,2.4000,26.8000,3.7000,2.4000
Approximate or User Input ViewFactors,To Surface,Surface Class,RowSum,FRONT-1,WF-1,DF-1,SB12,SB14,SB15,F1-1,C1-1
View Factor,FRONT-1,Wall,1.0000,0.0000,0.0000,0.0000,4.5031E-002,4.5031E-002,0.1988,0.3556,0.3556
View Factor,WF-1,Window,1.0000,0.0000,0.0000,0.0000,4.5031E-002,4.5031E-002,0.1988,0.3556,0.3556
View Factor,DF-1,Window,1.0000,0.0000,0.0000,0.0000,4.5031E-002,4.5031E-002,0.1988,0.3556,0.3556
View Factor,SB12,Wall,1.0000,0.1514,4.8775E-002,1.5463E-002,0.0000,3.6988E-002,0.1633,0.2921,0.2921
View Factor,SB14,Wall,1.0000,0.1514,4.8775E-002,1.5463E-002,3.6988E-002,0.0000,0.1633,0.2921,0.2921
View Factor,SB15,Wall,1.0000,0.1732,5.5826E-002,1.7698E-002,4.2335E-002,4.2335E-002,0.0000,0.3343,0.3343
View Factor,F1-1,Floor,1.0000,0.2032,6.5476E-002,2.0758E-002,4.9654E-002,4.9654E-002,0.2192,0.0000,0.3921
View Factor,C1-1,Roof,1.0000,0.2032,6.5476E-002,2.0758E-002,4.9654E-002,4.9654E-002,0.2192,0.3921,0.0000
Final ViewFactors,To Surface,Surface Class,RowSum,FRONT-1,WF-1,DF-1,SB12,SB14,SB15,F1-1,C1-1
View Factor,FRONT-1,Wall,1.0003,0.0000,0.0000,0.0000,3.4233E-002,3.4233E-002,0.1708,0.3805,0.3805
View Factor,WF-1,Window,1.0003,0.0000,0.0000,0.0000,3.4233E-002,3.4233E-002,0.1708,0.3805,0.3805
View Factor,DF-1,Window,1.0003,0.0000,0.0000,0.0000,3.4233E-002,3.4233E-002,0.1708,0.3805,0.3805
View Factor,SB12,Wall,1.0001,0.1401,4.5142E-002,1.4311E-002,0.0000,2.7867E-002,0.1403,0.3162,0.3162
View Factor,SB14,Wall,1.0001,0.1401,4.5142E-002,1.4311E-002,2.7867E-002,0.0000,0.1403,0.3162,0.3162
View Factor,SB15,Wall,1.0002,0.1583,5.1012E-002,1.6172E-002,3.1774E-002,3.1774E-002,0.0000,0.3556,0.3556
View Factor,F1-1,Floor,0.9998,0.1972,6.3549E-002,2.0147E-002,4.0049E-002,4.0049E-002,0.1988,0.0000,0.4400
View Factor,C1-1,Roof,0.9998,0.1972,6.3549E-002,2.0147E-002,4.0049E-002,4.0049E-002,0.1988,0.4400,0.0000
Script F Factors,X Surface,FRONT-1,WF-1,DF-1,SB12,SB14,SB15,F1-1,C1-1
Script F Factor,FRONT-1,3.4102E-002,1.0257E-002,3.2516E-003,3.4743E-002,3.4743E-002,0.1710,0.3703,0.2419
Script F Factor,WF-1,3.1829E-002,9.5728E-003,3.0348E-003,3.2427E-002,3.2427E-002,0.1596,0.3456,0.2258
Script F Factor,DF-1,3.1829E-002,9.5728E-003,3.0348E-003,3.2427E-002,3.2427E-002,0.1596,0.3456,0.2258
Script F Factor,SB12,0.1422,4.2760E-002,1.3556E-002,6.6202E-003,2.9130E-002,0.1443,0.3154,0.2061
Script F Factor,SB14,0.1422,4.2760E-002,1.3556E-002,2.9130E-002,6.6202E-003,0.1443,0.3154,0.2061
Script F Factor,SB15,0.1585,4.7660E-002,1.5110E-002,3.2693E-002,3.2693E-002,3.4474E-002,0.3503,0.2288
Script F Factor,F1-1,0.1919,5.7713E-002,1.8297E-002,3.9949E-002,3.9949E-002,0.1958,8.0529E-002,0.2757
Script F Factor,C1-1,0.1254,3.7708E-002,1.1955E-002,2.6102E-002,2.6102E-002,0.1279,0.2757,1.9024E-002
Surface View Factor - Zone/Enclosure Information,CLASSROOM_EAST,7
Surface View Factor - Surface Information,RIGHT-1,Wall,27.3600,90.0000,90.0000,0.9000,4,30.5000,0.0000,2.4000,30.5000,0.0000,0.0000,30.5000,15.2000,0.0000,30.5000,15.2000,2.4000
Surface View Factor - Surface Information,WR-1,Window,9.1200,90.0000,90.0000,0.8400,4,30.5000,3.8000,2.1000,30.5000,3.8000,0.9000,30.5000,11.4000,0.9000,30.5000,11.4000,2.1000
Surface View Factor - Surface Information,SB21,Wall,12.5582,225.0000,90.0000,0.9000,4,26.8000,3.7000,2.4000,26.8000,3.7000,0.0000,30.5000,0.0000,0.0000,30.5000,0.0000,2.4000
Surface View Factor - Surface Information,SB23,Wall,12.3897,315.7848,90.0000,0.9000,4,30.5000,15.2000,2.4000,30.5000,15.2000,0.0000,26.8000,11.6000,0.0000,26.8000,11.6000,2.4000
Surface View Factor - Surface Information,SB25,Wall,18.9600,270.0000,90.0000,0.9000,4,26.8000,11.6000,2.4000,26.8000,11.6000,0.0000,26.8000,3.7000,0.0000,26.8000,3.7000,2.4000
Surface View Factor - Surface Information,F2-1,Floor,42.7350,270.0000,180.0000,0.9000,4,26.8000,11.6000,0.0000,30.5000,15.2000,0.0000,30.5000,0.0000,0.0000,26.8000,3.7000,0.0000
Surface View Factor - Surface Information,C2-1,Roof,42.7350,90.0000,0.0000,0.6500,4,26.8000,3.7000,2.4000,30.5000,0.0000,2.4000,30.5000,15.2000,2.4000,26.8000,11.6000,2.4000
Approximate or User Input ViewFactors,To Surface,Surface Class,RowSum,RIGHT-1,WR-1,SB21,SB23,SB25,F2-1,C2-1
View Factor,RIGHT-1,Wall,1.0000,0.0000,0.0000,9.7066E-002,9.5763E-002,0.1465,0.3303,0.3303
View Factor,WR-1,Window,1.0000,0.0000,0.0000,9.7066E-002,9.5763E-002,0.1465,0.3303,0.3303
View Factor,SB21,Wall,1.0000,0.1785,5.9491E-002,0.0000,8.0820E-002,0.1237,0.2788,0.2788
View Factor,SB23,Wall,1.0000,0.1783,5.9426E-002,8.1829E-002,0.0000,0.1235,0.2785,0.2785
View Factor,SB25,Wall,1.0000,0.1863,6.2084E-002,8.5489E-002,8.4342E-002,0.0000,0.2909,0.2909
View Factor,F2-1,Floor,1.0000,0.2222,7.4072E-002,0.1020,0.1006,0.1540,0.0000,0.3471
View Factor,C2-1,Roof,1.0000,0.2222,7.4072E-002,0.1020,0.1006,0.1540,0.3471,0.0000
Final ViewFactors,To Surface,Surface Class,RowSum,RIGHT-1,WR-1,SB21,SB23,SB25,F2-1,C2-1
View Factor,RIGHT-1,Wall,1.0002,0.0000,0.0000,8.0758E-002,7.9598E-002,0.1268,0.3565,0.3565
View Factor,WR-1,Window,1.0002,0.0000,0.0000,8.0758E-002,7.9598E-002,0.1268,0.3565,0.3565
View Factor,SB21,Wall,1.0002,0.1759,5.8648E-002,0.0000,6.5543E-002,0.1047,0.2977,0.2977
View Factor,SB23,Wall,1.0002,0.1758,5.8591E-002,6.6434E-002,0.0000,0.1046,0.2974,0.2974
View Factor,SB25,Wall,1.0002,0.1830,6.0985E-002,6.9327E-002,6.8327E-002,0.0000,0.3093,0.3093
View Factor,F2-1,Floor,0.9998,0.2283,7.6089E-002,8.7482E-002,8.6227E-002,0.1372,0.0000,0.3845
View Factor,C2-1,Roof,0.9998,0.2283,7.6089E-002,8.7482E-002,8.6227E-002,0.1372,0.3845,0.0000
Script F Factors,X Surface,RIGHT-1,WR-1,SB21,SB23,SB25,F2-1,C2-1
Script F Factor,RIGHT-1,3.7839E-002,1.1772E-002,7.9829E-002,7.8690E-002,0.1248,0.3415,0.2257
Script F Factor,WR-1,3.5317E-002,1.0987E-002,7.4507E-002,7.3444E-002,0.1165,0.3187,0.2107
Script F Factor,SB21,0.1739,5.4108E-002,1.4080E-002,6.6623E-002,0.1059,0.2923,0.1932
Script F Factor,SB23,0.1738,5.4062E-002,6.7529E-002,1.3873E-002,0.1058,0.2921,0.1931
Script F Factor,SB25,0.1801,5.6024E-002,7.0123E-002,6.9119E-002,2.2407E-002,0.3025,0.2000
Script F Factor,F2-1,0.2186,6.8022E-002,8.5903E-002,8.4679E-002,0.1342,6.6285E-002,0.2421
Script F Factor,C2-1,0.1445,4.4965E-002,5.6785E-002,5.5976E-002,8.8712E-002,0.2421,1.6834E-002
Surface View Factor - Zone/Enclosure Information,CLASSROOM_NORTH,8
Surface View Factor - Surface Information,BACK-1,Wall,52.3500,0.0000,90.0000,0.9000,4,30.5000,15.2000,2.4000,30.5000,15.2000,0.0000,0.0000,15.2000,0.0000,0.0000,15.2000,2.4000
Surface View Factor - Surface Information,WB-1,Window,16.4400,0.0000,90.0000,0.8400,4,27.4000,15.2000,2.1000,27.4000,15.2000,0.9000,13.7000,15.2000,0.9000,13.7000,15.2000,2.1000
Surface View Factor - Surface Information,DB-1,Window,4.4100,0.0000,90.0000,0.8400,4,9.1000,15.2000,2.1000,9.1000,15.2000,0.0000,7.0000,15.2000,0.0000,7.0000,15.2000,2.1000
Surface View Factor - Surface Information,SB32,Wall,12.3897,135.7848,90.0000,0.9000,4,26.8000,11.6000,2.4000,26.8000,11.6000,0.0000,30.5000,15.2000,0.0000,30.5000,15.2000,2.4000
Surface View Factor - Surface Information,SB34,Wall,12.3897,224.2152,90.0000,0.9000,4,0.0000,15.2000,2.4000,0.0000,15.2000,0.0000,3.7000,11.6000,0.0000,3.7000,11.6000,2.4000
Surface View Factor - Surface Information,SB35,Wall,55.4400,180.0000,90.0000,0.9000,4,3.7000,11.6000,2.4000,3.7000,11.6000,0.0000,26.8000,11.6000,0.0000,26.8000,11.6000,2.4000
Surface View Factor - Surface Information,F3-1,Floor,96.4800,44.2152,180.0000,0.9000,4,26.8000,11.6000,0.0000,3.7000,11.6000,0.0000,0.0000,15.2000,0.0000,30.5000,15.2000,0.0000
Surface View Factor - Surface Information,C3-1,Roof,96.4800,224.2152,0.0000,0.6500,4,30.5000,15.2000,2.4000,0.0000,15.2000,2.4000,3.7000,11.6000,2.4000,26.8000,11.6000,2.4000
Approximate or User Input ViewFactors,To Surface,Surface Class,RowSum,BACK-1,WB-1,DB-1,SB32,SB34,SB35,F3-1,C3-1
View Factor,BACK-1,Wall,1.0000,0.0000,0.0000,0.0000,4.5354E-002,4.5354E-002,0.2029,0.3532,0.3532
View Factor,WB-1,Window,1.0000,0.0000,0.0000,0.0000,4.5354E-002,4.5354E-002,0.2029,0.3532,0.3532
View Factor,DB-1,Window,1.0000,0.0000,0.0000,0.0000,4.5354E-002,4.5354E-002,0.2029,0.3532,0.3532
View Factor,SB32,Wall,1.0000,0.1567,4.9223E-002,1.3204E-002,0.0000,3.7096E-002,0.1660,0.2889,0.2889
View Factor,SB34,Wall,1.0000,0.1567,4.9223E-002,1.3204E-002,3.7096E-002,0.0000,0.1660,0.2889,0.2889
View Factor,SB35,Wall,1.0000,0.1799,5.6507E-002,1.5158E-002,4.2585E-002,4.2585E-002,0.0000,0.3316,0.3316
View Factor,F3-1,Floor,1.0000,0.2095,6.5786E-002,1.7647E-002,4.9579E-002,4.9579E-002,0.2218,0.0000,0.3861
View Factor,C3-1,Roof,1.0000,0.2095,6.5786E-002,1.7647E-002,4.9579E-002,4.9579E-002,0.2218,0.3861,0.0000
Final ViewFactors,To Surface,Surface Class,RowSum,BACK-1,WB-1,DB-1,SB32,SB34,SB35,F3-1,C3-1
View Factor,BACK-1,Wall,1.0003,0.0000,0.0000,0.0000,3.4682E-002,3.4682E-002,0.1760,0.3775,0.3775
View Factor,WB-1,Window,1.0003,0.0000,0.0000,0.0000,3.4682E-002,3.4682E-002,0.1760,0.3775,0.3775
View Factor,DB-1,Window,1.0003,0.0000,0.0000,0.0000,3.4682E-002,3.4682E-002,0.1760,0.3775,0.3775
View Factor,SB32,Wall,1.0001,0.1465,4.6020E-002,1.2345E-002,0.0000,2.8053E-002,0.1437,0.3117,0.3117
View Factor,SB34,Wall,1.0001,0.1465,4.6020E-002,1.2345E-002,2.8053E-002,0.0000,0.1437,0.3117,0.3117
View Factor,SB35,Wall,1.0002,0.1661,5.2177E-002,1.3996E-002,3.2106E-002,3.2106E-002,0.0000,0.3518,0.3518
View Factor,F3-1,Floor,0.9998,0.2048,6.4321E-002,1.7254E-002,4.0034E-002,4.0034E-002,0.2022,0.0000,0.4312
View Factor,C3-1,Roof,0.9998,0.2048,6.4321E-002,1.7254E-002,4.0034E-002,4.0034E-002,0.2022,0.4312,0.0000
Script F Factors,X Surface,BACK-1,WB-1,DB-1,SB32,SB34,SB35,F3-1,C3-1
Script F Factor,BACK-1,3.5255E-002,1.0333E-002,2.7719E-003,3.5075E-002,3.5075E-002,0.1755,0.3664,0.2398
Script F Factor,WB-1,3.2904E-002,9.6444E-003,2.5871E-003,3.2736E-002,3.2736E-002,0.1638,0.3420,0.2239
Script F Factor,DB-1,3.2904E-002,9.6444E-003,2.5871E-003,3.2736E-002,3.2736E-002,0.1638,0.3420,0.2239
Script F Factor,SB32,0.1482,4.3438E-002,1.1652E-002,6.5818E-003,2.9241E-002,0.1473,0.3104,0.2032
Script F Factor,SB34,0.1482,4.3438E-002,1.1652E-002,2.9241E-002,6.5818E-003,0.1473,0.3104,0.2032
Script F Factor,SB35,0.1657,4.8560E-002,1.3026E-002,3.2927E-002,3.2927E-002,3.4889E-002,0.3458,0.2264
Script F Factor,F3-1,0.1988,5.8273E-002,1.5632E-002,3.9865E-002,3.9865E-002,0.1987,7.8264E-002,0.2704
Script F Factor,C3-1,0.1301,3.8145E-002,1.0232E-002,2.6095E-002,2.6095E-002,0.1301,0.2704,1.8709E-002
Surface View Factor - Zone/Enclosure Information,CLASSROOM_WEST,7
Surface View Factor - Surface Information,LEFT-1,Wall,27.3600,270.0000,90.0000,0.9000,4,0.0000,15.2000,2.4000,0.0000,15.2000,0.0000,0.0000,0.0000,0.0000,0.0000,0.0000,2.4000
Surface View Factor - Surface Information,WL-1,Window,9.1200,270.0000,90.0000,0.8400,4,0.0000,11.4000,2.1000,0.0000,11.4000,0.9000,0.0000,3.8000,0.9000,0.0000,3.8000,2.1000
Surface View Factor - Surface Information,SB41,Wall,12.5582,135.0000,90.0000,0.9000,4,0.0000,0.0000,2.4000,0.0000,0.0000,0.0000,3.7000,3.7000,0.0000,3.7000,3.7000,2.4000
Surface View Factor - Surface Information,SB43,Wall,12.3897,44.2152,90.0000,0.9000,4,3.7000,11.6000,2.4000,3.7000,11.6000,0.0000,0.0000,15.2000,0.0000,0.0000,15.2000,2.4000
Surface View Factor - Surface Information,SB45,Wall,18.9600,90.0000,90.0000,0.9000,4,3.7000,3.7000,2.4000,3.7000,3.7000,0.0000,3.7000,11.6000,0.0000,3.7000,11.6000,2.4000
Surface View Factor - Surface Information,F4-1,Floor,42.7350,90.0000,180.0000,0.9000,4,3.7000,3.7000,0.0000,0.0000,0.0000,0.0000,0.0000,15.2000,0.0000,3.7000,11.6000,0.0000
Surface View Factor - Surface Information,C4-1,Roof,42.7350,270.0000,0.0000,0.6500,4,3.7000,11.6000,2.4000,0.0000,15.2000,2.4000,0.0000,0.0000,2.4000,3.7000,3.7000,2.4000
Approximate or User Input ViewFactors,To Surface,Surface Class,RowSum,LEFT-1,WL-1,SB41,SB43,SB45,F4-1,C4-1
View Factor,LEFT-1,Wall,1.0000,0.0000,0.0000,9.7066E-002,9.5763E-002,0.1465,0.3303,0.3303
View Factor,WL-1,Window,1.0000,0.0000,0.0000,9.7066E-002,9.5763E-002,0.1465,0.3303,0.3303
View Factor,SB41,Wall,1.0000,0.1785,5.9491E-002,0.0000,8.0820E-002,0.1237,0.2788,0.2788
View Factor,SB43,Wall,1.0000,0.1783,5.9426E-002,8.1829E-002,0.0000,0.1235,0.2785,0.2785
View Factor,SB45,Wall,1.0000,0.1863,6.2084E-002,8.5489E-002,8.4342E-002,0.0000,0.2909,0.2909
View Factor,F4-1,Floor,1.0000,0.2222,7.4072E-002,0.1020,0.1006,0.1540,0.0000,0.3471
View Factor,C4-1,Roof,1.0000,0.2222,7.4072E-002,0.1020,0.1006,0.1540,0.3471,0.0000
Final ViewFactors,To Surface,Surface Class,RowSum,LEFT-1,WL-1,SB41,SB43,SB45,F4-1,C4-1
View Factor,LEFT-1,Wall,1.0002,0.0000,0.0000,8.0758E-002,7.9598E-002,0.1268,0.3565,0.3565
View Factor,WL-1,Window,1.0002,0.0000,0.0000,8.0758E-002,7.9598E-002,0.1268,0.3565,0.3565
View Factor,SB41,Wall,1.0002,0.1759,5.8648E-002,0.0000,6.5543E-002,0.1047,0.2977,0.2977
View Factor,SB43,Wall,1.0002,0.1758,5.8591E-002,6.6434E-002,0.0000,0.1046,0.2974,0.2974
View Factor,SB45,Wall,1.0002,0.1830,6.0985E-002,6.9327E-002,6.8327E-002,0.0000,0.3093,0.3093
View Factor,F4-1,Floor,0.9998,0.2283,7.6089E-002,8.7482E-002,8.6227E-002,0.1372,0.0000,0.3845
View Factor,C4-1,Roof,0.9998,0.2283,7.6089E-002,8.7482E-002,8.6227E-002,0.1372,0.3845,0.0000
Script F Factors,X Surface,LEFT-1,WL-1,SB41,SB43,SB45,F4-1,C4-1
Script F Factor,LEFT-1,3.7839E-002,1.1772E-002,7.9829E-002,7.8690E-002,0.1248,0.3415,0.2257
Script F Factor,WL-1,3.5317E-002,1.0987E-002,7.4507E-002,7.3444E-002,0.1165,0.3187,0.2107
Script F Factor,SB41,0.1739,5.4108E-002,1.4080E-002,6.6623E-002,0.1059,0.2923,0.1932
Script F Factor,SB43,0.1738,5.4062E-002,6.7529E-002,1.3873E-002,0.1058,0.2921,0.1931
Script F Factor,SB45,0.1801,5.6024E-002,7.0123E-002,6.9119E-002,2.2407E-002,0.3025,0.2000
Script F Factor,F4-1,0.2186,6.8022E-002,8.5903E-002,8.4679E-002,0.1342,6.6285E-002,0.2421
Script F Factor,C4-1,0.1445,4.4965E-002,5.6785E-002,5.5976E-002,8.8712E-002,0.2421,1.6834E-002
Surface View Factor - Zone/Enclosure Information,CORRIDOR,6
Surface View Factor - Surface Information,SB51,Wall,55.4400,180.0000,90.0000,0.9000,4,3.7000,3.7000,2.4000,3.7000,3.7000,0.0000,26.8000,3.7000,0.0000,26.8000,3.7000,2.4000
Surface View Factor - Surface Information,SB52,Wall,18.9600,90.0000,90.0000,0.9000,4,26.8000,3.7000,2.4000,26.8000,3.7000,0.0000,26.8000,11.6000,0.0000,26.8000,11.6000,2.4000
Surface View Factor - Surface Information,SB53,Wall,55.4400,0.0000,90.0000,0.9000,4,26.8000,11.6000,2.4000,26.8000,11.6000,0.0000,3.7000,11.6000,0.0000,3.7000,11.6000,2.4000
Surface View Factor - Surface Information,SB54,Wall,18.9600,270.0000,90.0000,0.9000,4,3.7000,11.6000,2.4000,3.7000,11.6000,0.0000,3.7000,3.7000,0.0000,3.7000,3.7000,2.4000
Surface View Factor - Surface Information,F5-1,Floor,182.4900,0.0000,180.0000,0.9000,4,26.8000,11.6000,0.0000,26.8000,3.7000,0.0000,3.7000,3.7000,0.0000,3.7000,11.6000,0.0000
Surface View Factor - Surface Information,C5-1,Roof,182.4900,180.0000,0.0000,0.6500,4,3.7000,11.6000,2.4000,3.7000,3.7000,2.4000,26.8000,3.7000,2.4000,26.8000,11.6000,2.4000
Approximate or User Input ViewFactors,To Surface,Surface Class,RowSum,SB51,SB52,SB53,SB54,F5-1,C5-1
View Factor,SB51,Wall,1.0000,0.0000,4.1367E-002,0.1210,4.1367E-002,0.3982,0.3982
View Factor,SB52,Wall,1.0000,0.1120,0.0000,0.1120,3.8317E-002,0.3688,0.3688
View Factor,SB53,Wall,1.0000,0.1210,4.1367E-002,0.0000,4.1367E-002,0.3982,0.3982
View Factor,SB54,Wall,1.0000,0.1120,3.8317E-002,0.1120,0.0000,0.3688,0.3688
View Factor,F5-1,Floor,1.0000,0.1673,5.7231E-002,0.1673,5.7231E-002,0.0000,0.5508
View Factor,C5-1,Roof,1.0000,0.1673,5.7231E-002,0.1673,5.7231E-002,0.5508,0.0000
Final ViewFactors,To Surface,Surface Class,RowSum,SB51,SB52,SB53,SB54,F5-1,C5-1
View Factor,SB51,Wall,1.0002,0.0000,2.6720E-002,8.3114E-002,2.6720E-002,0.4318,0.4318
View Factor,SB52,Wall,1.0002,7.8131E-002,0.0000,7.8131E-002,2.5072E-002,0.4094,0.4094
View Factor,SB53,Wall,1.0002,8.3114E-002,2.6720E-002,0.0000,2.6720E-002,0.4318,0.4318
View Factor,SB54,Wall,1.0002,7.8131E-002,2.5072E-002,7.8131E-002,0.0000,0.4094,0.4094
View Factor,F5-1,Floor,0.9999,0.1312,4.2537E-002,0.1312,4.2537E-002,0.0000,0.6525
View Factor,C5-1,Roof,0.9999,0.1312,4.2537E-002,0.1312,4.2537E-002,0.6525,0.0000
Script F Factors,X Surface,SB51,SB52,SB53,SB54,F5-1,C5-1
Script F Factor,SB51,2.4807E-002,2.9675E-002,9.1575E-002,2.9675E-002,0.4455,0.2790
Script F Factor,SB52,8.6771E-002,7.8239E-003,8.6771E-002,2.8082E-002,0.4247,0.2660
Script F Factor,SB53,9.1575E-002,2.9675E-002,2.4807E-002,2.9675E-002,0.4455,0.2790
Script F Factor,SB54,8.6771E-002,2.8082E-002,8.6771E-002,7.8239E-003,0.4247,0.2660
Script F Factor,F5-1,0.1353,4.4124E-002,0.1353,4.4124E-002,0.1416,0.3994
Script F Factor,C5-1,8.4760E-002,2.7636E-002,8.4760E-002,2.7636E-002,0.3994,2.5742E-002
! <Water Heater Information>,Type,Name,Volume {m3},Maximum Capacity {W},Standard Rated Recovery Efficiency, Standard Rated Energy Factor
! <Water Heater Stratified Node Information>,Node Number,Height {m},Volume {m3},Maximum Capacity {W},Off-Cycle UA {W/K},On-Cycle UA {W/K},Number Of Inlets,Number Of Outlets
! <Surface Convection Parameters>, Surface Name, Outside Model Assignment, Outside Area [m2], Outside Perimeter [m], Outside Height [m], Inside Model Assignment, Inside Height [m], Inside Perimeter Envelope [m], Inside Hydraulic Diameter [m], Window Wall Ratio, Window Location, Near Radiant {Yes/No}, Has Active HVAC {Yes/No}
Surface Convection Parameters,WALL-1PF,0,91.50,67.00,3.00,0,0.61,91.40,20.29,0.00,0,No,No
Surface Convection Parameters,WALL-1PR,0,45.60,74.16,3.00,0,0.61,91.40,20.29,0.00,0,No,No
Surface Convection Parameters,WALL-1PB,0,91.50,74.16,3.00,0,0.61,91.40,20.29,0.00,0,No,No
Surface Convection Parameters,WALL-1PL,0,45.60,36.40,3.00,0,0.61,91.40,20.29,0.00,0,No,No
Surface Convection Parameters,C1-1P,0,0.00,0.00,0.00,0,0.61,91.40,20.29,0.00,0,No,No
Surface Convection Parameters,C2-1P,0,0.00,0.00,0.00,0,0.61,91.40,20.29,0.00,0,No,No
Surface Convection Parameters,C3-1P,0,0.00,0.00,0.00,0,0.61,91.40,20.29,0.00,0,No,No
Surface Convection Parameters,C4-1P,0,0.00,0.00,0.00,0,0.61,91.40,20.29,0.00,0,No,No
Surface Convection Parameters,C5-1P,0,0.00,0.00,0.00,0,0.61,91.40,20.29,0.00,0,No,No
Surface Convection Parameters,TOP-1,0,463.60,91.40,0.00,0,0.61,91.40,20.29,0.00,0,No,No
Surface Convection Parameters,FRONT-1,0,91.50,67.00,3.00,0,2.44,30.50,5.80,0.30,4,No,No
Surface Convection Parameters,WF-1,0,91.50,67.00,3.00,0,2.44,30.50,5.80,0.30,2,No,No
Surface Convection Parameters,DF-1,0,91.50,67.00,3.00,0,2.44,30.50,5.80,0.30,1,No,No
Surface Convection Parameters,SB12,0,0.00,0.00,0.00,0,2.44,30.50,5.80,0.30,0,No,No
Surface Convection Parameters,SB14,0,0.00,0.00,0.00,0,2.44,30.50,5.80,0.30,0,No,No
Surface Convection Parameters,SB15,0,0.00,0.00,0.00,0,2.44,30.50,5.80,0.30,0,No,No
Surface Convection Parameters,F1-1,0,0.00,0.00,0.00,0,2.44,30.50,5.80,0.30,0,No,No
Surface Convection Parameters,C1-1,0,0.00,0.00,0.00,0,2.44,30.50,5.80,0.30,0,No,No
Surface Convection Parameters,RIGHT-1,0,45.60,74.16,3.00,0,2.44,15.20,4.52,0.25,3,No,No
Surface Convection Parameters,WR-1,0,45.60,74.16,3.00,0,2.44,15.20,4.52,0.25,2,No,No
Surface Convection Parameters,SB21,0,0.00,0.00,0.00,0,2.44,15.20,4.52,0.25,0,No,No
Surface Convection Parameters,SB23,0,0.00,0.00,0.00,0,2.44,15.20,4.52,0.25,0,No,No
Surface Convection Parameters,SB25,0,0.00,0.00,0.00,0,2.44,15.20,4.52,0.25,0,No,No
Surface Convection Parameters,F2-1,0,0.00,0.00,0.00,0,2.44,15.20,4.52,0.25,0,No,No
Surface Convection Parameters,C2-1,0,0.00,0.00,0.00,0,2.44,15.20,4.52,0.25,0,No,No
Surface Convection Parameters,BACK-1,0,91.50,74.16,3.00,0,2.44,30.50,5.66,0.28,4,No,No
Surface Convection Parameters,WB-1,0,91.50,74.16,3.00,0,2.44,30.50,5.66,0.28,2,No,No
Surface Convection Parameters,DB-1,0,91.50,74.16,3.00,0,2.44,30.50,5.66,0.28,1,No,No
Surface Convection Parameters,SB32,0,0.00,0.00,0.00,0,2.44,30.50,5.66,0.28,0,No,No
Surface Convection Parameters,SB34,0,0.00,0.00,0.00,0,2.44,30.50,5.66,0.28,0,No,No
Surface Convection Parameters,SB35,0,0.00,0.00,0.00,0,2.44,30.50,5.66,0.28,0,No,No
Surface Convection Parameters,F3-1,0,0.00,0.00,0.00,0,2.44,30.50,5.66,0.28,0,No,No
Surface Convection Parameters,C3-1,0,0.00,0.00,0.00,0,2.44,30.50,5.66,0.28,0,No,No
Surface Convection Parameters,LEFT-1,0,45.60,36.40,3.00,0,2.44,15.20,4.52,0.25,3,No,No
Surface Convection Parameters,WL-1,0,45.60,36.40,3.00,0,2.44,15.20,4.52,0.25,2,No,No
Surface Convection Parameters,SB41,0,0.00,0.00,0.00,0,2.44,15.20,4.52,0.25,0,No,No
Surface Convection Parameters,SB43,0,0.00,0.00,0.00,0,2.44,15.20,4.52,0.25,0,No,No
Surface Convection Parameters,SB45,0,0.00,0.00,0.00,0,2.44,15.20,4.52,0.25,0,No,No
Surface Convection Parameters,F4-1,0,0.00,0.00,0.00,0,2.44,15.20,4.52,0.25,0,No,No
Surface Convection Parameters,C4-1,0,0.00,0.00,0.00,0,2.44,15.20,4.52,0.25,0,No,No
Surface Convection Parameters,SB51,0,0.00,0.00,0.00,0,2.44,0.00,11.77,-999.00,0,No,No
Surface Convection Parameters,SB52,0,0.00,0.00,0.00,0,2.44,0.00,11.77,-999.00,0,No,No
Surface Convection Parameters,SB53,0,0.00,0.00,0.00,0,2.44,0.00,11.77,-999.00,0,No,No
Surface Convection Parameters,SB54,0,0.00,0.00,0.00,0,2.44,0.00,11.77,-999.00,0,No,No
Surface Convection Parameters,F5-1,0,0.00,0.00,0.00,0,2.44,0.00,11.77,-999.00,0,No,No
Surface Convection Parameters,C5-1,0,0.00,0.00,0.00,0,2.44,0.00,11.77,-999.00,0,No,No
! <ZoneInfiltration Airflow Stats Nominal>,Name,Schedule Name,Zone Name, Zone Floor Area {m2}, # Zone Occupants,Design Volume Flow Rate {m3/s},Volume Flow Rate/Floor Area {m3/s-m2},Volume Flow Rate/Exterior Surface Area {m3/s-m2},ACH - Air Changes per Hour,Equation A - Constant Term Coefficient {},Equation B - Temperature Term Coefficient {1/C},Equation C - Velocity Term Coefficient {s/m}, Equation D - Velocity Squared Term Coefficient {s2/m2}
 ZoneInfiltration Airflow Stats Nominal, SPACE1-1 INFIL 1,INFIL-SCH,CLASSROOM_SOUTH,99.16,30.0,3.200E-002,3.227E-004,4.372E-004,0.482,0.000,0.000,0.224,0.000
 ZoneInfiltration Airflow Stats Nominal, SPACE2-1 INFIL 1,INFIL-SCH,CLASSROOM_EAST,42.74,30.0,1.400E-002,3.276E-004,3.838E-004,0.488,0.000,0.000,0.224,0.000
 ZoneInfiltration Airflow Stats Nominal, SPACE3-1 INFIL 1,INFIL-SCH,CLASSROOM_NORTH,96.48,30.0,3.200E-002,3.317E-004,4.372E-004,0.482,0.000,0.000,0.224,0.000
 ZoneInfiltration Airflow Stats Nominal, SPACE4-1 INFIL 1,INFIL-SCH,CLASSROOM_WEST,42.74,30.0,1.400E-002,3.276E-004,3.838E-004,0.488,0.000,0.000,0.224,0.000
 ZoneInfiltration Airflow Stats Nominal, SPACE5-1 INFIL 1,INFIL-SCH,CORRIDOR,182.49,20.0,6.200E-002,3.397E-004,N/A,0.499,0.000,0.000,0.224,0.000
! <AirFlow Model>, Simple
 AirFlow Model, Simple
! <RoomAir Model>, Zone Name, Mixing/Mundt/UCSDDV/UCSDCV/UCSDUFI/UCSDUFE/User Defined
RoomAir Model,RETURN_PLENUM,Mixing/Well-Stirred
RoomAir Model,CLASSROOM_SOUTH,Mixing/Well-Stirred
RoomAir Model,CLASSROOM_EAST,Mixing/Well-Stirred
RoomAir Model,CLASSROOM_NORTH,Mixing/Well-Stirred
RoomAir Model,CLASSROOM_WEST,Mixing/Well-Stirred
RoomAir Model,CORRIDOR,Mixing/Well-Stirred
! <AirflowNetwork Model:Control>, No Multizone or Distribution/Multizone with Distribution/Multizone without Distribution/Multizone with Distribution only during Fan Operation
AirflowNetwork Model:Control,NoMultizoneOrDistribution
! <Zone Volume Capacitance Multiplier>, Sensible Heat Capacity Multiplier, Moisture Capacity Multiplier, Carbon Dioxide Capacity Multiplier, Generic Contaminant Capacity Multiplier
Zone Volume Capacitance Multiplier,   1.000 ,   1.000,   1.000,   1.000
! <Load Timesteps in Zone Design Calculation Averaging Window>, Value
 Load Timesteps in Zone Design Calculation Averaging Window,    4
! <Heating Sizing Factor Information>, Sizing Factor ID, Value
 Heating Sizing Factor Information, Global,   1.0000    
! <Cooling Sizing Factor Information>, Sizing Factor ID, Value
 Cooling Sizing Factor Information, Global,   1.0000    
! <Radiant to Convective Decay Curves for Cooling>,Zone Name, Surface Name, Time 1,2,3,4,5,6,7,8,9,10,11,12,13,14,15,16,17,18,19,20,21,22,23,24,25,26,27,28,29,30,31,32,33,34,35,36
! <Radiant to Convective Decay Curves for Heating>,Zone Name, Surface Name, Time 1,2,3,4,5,6,7,8,9,10,11,12,13,14,15,16,17,18,19,20,21,22,23,24,25,26,27,28,29,30,31,32,33,34,35,36
Radiant to Convective Decay Curves for Cooling,RETURN_PLENUM,WALL-1PF, 0.000, 0.000, 0.000, 0.000, 0.000, 0.000, 0.000, 0.000, 0.000, 0.000, 0.000, 0.000, 0.000, 0.000, 0.000, 0.000, 0.000, 0.000, 0.000, 0.000, 0.000, 0.000, 0.000, 0.000, 0.000, 0.000, 0.000, 0.000, 0.000, 0.000, 0.000, 0.000, 0.000, 0.000, 0.000, 0.000
Radiant to Convective Decay Curves for Cooling,RETURN_PLENUM,WALL-1PR, 0.000, 0.000, 0.000, 0.000, 0.000, 0.000, 0.000, 0.000, 0.000, 0.000, 0.000, 0.000, 0.000, 0.000, 0.000, 0.000, 0.000, 0.000, 0.000, 0.000, 0.000, 0.000, 0.000, 0.000, 0.000, 0.000, 0.000, 0.000, 0.000, 0.000, 0.000, 0.000, 0.000, 0.000, 0.000, 0.000
Radiant to Convective Decay Curves for Cooling,RETURN_PLENUM,WALL-1PB, 0.000, 0.000, 0.000, 0.000, 0.000, 0.000, 0.000, 0.000, 0.000, 0.000, 0.000, 0.000, 0.000, 0.000, 0.000, 0.000, 0.000, 0.000, 0.000, 0.000, 0.000, 0.000, 0.000, 0.000, 0.000, 0.000, 0.000, 0.000, 0.000, 0.000, 0.000, 0.000, 0.000, 0.000, 0.000, 0.000
Radiant to Convective Decay Curves for Cooling,RETURN_PLENUM,WALL-1PL, 0.000, 0.000, 0.000, 0.000, 0.000, 0.000, 0.000, 0.000, 0.000, 0.000, 0.000, 0.000, 0.000, 0.000, 0.000, 0.000, 0.000, 0.000, 0.000, 0.000, 0.000, 0.000, 0.000, 0.000, 0.000, 0.000, 0.000, 0.000, 0.000, 0.000, 0.000, 0.000, 0.000, 0.000, 0.000, 0.000
Radiant to Convective Decay Curves for Cooling,RETURN_PLENUM,C1-1P, 0.000, 0.000, 0.000, 0.000, 0.000, 0.000, 0.000, 0.000, 0.000, 0.000, 0.000, 0.000, 0.000, 0.000, 0.000, 0.000, 0.000, 0.000, 0.000, 0.000, 0.000, 0.000, 0.000, 0.000, 0.000, 0.000, 0.000, 0.000, 0.000, 0.000, 0.000, 0.000, 0.000, 0.000, 0.000, 0.000
Radiant to Convective Decay Curves for Cooling,RETURN_PLENUM,C2-1P, 0.000, 0.000, 0.000, 0.000, 0.000, 0.000, 0.000, 0.000, 0.000, 0.000, 0.000, 0.000, 0.000, 0.000, 0.000, 0.000, 0.000, 0.000, 0.000, 0.000, 0.000, 0.000, 0.000, 0.000, 0.000, 0.000, 0.000, 0.000, 0.000, 0.000, 0.000, 0.000, 0.000, 0.000, 0.000, 0.000
Radiant to Convective Decay Curves for Cooling,RETURN_PLENUM,C3-1P, 0.000, 0.000, 0.000, 0.000, 0.000, 0.000, 0.000, 0.000, 0.000, 0.000, 0.000, 0.000, 0.000, 0.000, 0.000, 0.000, 0.000, 0.000, 0.000, 0.000, 0.000, 0.000, 0.000, 0.000, 0.000, 0.000, 0.000, 0.000, 0.000, 0.000, 0.000, 0.000, 0.000, 0.000, 0.000, 0.000
Radiant to Convective Decay Curves for Cooling,RETURN_PLENUM,C4-1P, 0.000, 0.000, 0.000, 0.000, 0.000, 0.000, 0.000, 0.000, 0.000, 0.000, 0.000, 0.000, 0.000, 0.000, 0.000, 0.000, 0.000, 0.000, 0.000, 0.000, 0.000, 0.000, 0.000, 0.000, 0.000, 0.000, 0.000, 0.000, 0.000, 0.000, 0.000, 0.000, 0.000, 0.000, 0.000, 0.000
Radiant to Convective Decay Curves for Cooling,RETURN_PLENUM,C5-1P, 0.000, 0.000, 0.000, 0.000, 0.000, 0.000, 0.000, 0.000, 0.000, 0.000, 0.000, 0.000, 0.000, 0.000, 0.000, 0.000, 0.000, 0.000, 0.000, 0.000, 0.000, 0.000, 0.000, 0.000, 0.000, 0.000, 0.000, 0.000, 0.000, 0.000, 0.000, 0.000, 0.000, 0.000, 0.000, 0.000
Radiant to Convective Decay Curves for Cooling,RETURN_PLENUM,TOP-1, 0.000, 0.000, 0.000, 0.000, 0.000, 0.000, 0.000, 0.000, 0.000, 0.000, 0.000, 0.000, 0.000, 0.000, 0.000, 0.000, 0.000, 0.000, 0.000, 0.000, 0.000, 0.000, 0.000, 0.000, 0.000, 0.000, 0.000, 0.000, 0.000, 0.000, 0.000, 0.000, 0.000, 0.000, 0.000, 0.000
Radiant to Convective Decay Curves for Heating,RETURN_PLENUM,WALL-1PF, 0.000, 0.000, 0.000, 0.000, 0.000, 0.000, 0.000, 0.000, 0.000, 0.000, 0.000, 0.000, 0.000, 0.000, 0.000, 0.000, 0.000, 0.000, 0.000, 0.000, 0.000, 0.000, 0.000, 0.000, 0.000, 0.000, 0.000, 0.000, 0.000, 0.000, 0.000, 0.000, 0.000, 0.000, 0.000, 0.000
Radiant to Convective Decay Curves for Heating,RETURN_PLENUM,WALL-1PR, 0.000, 0.000, 0.000, 0.000, 0.000, 0.000, 0.000, 0.000, 0.000, 0.000, 0.000, 0.000, 0.000, 0.000, 0.000, 0.000, 0.000, 0.000, 0.000, 0.000, 0.000, 0.000, 0.000, 0.000, 0.000, 0.000, 0.000, 0.000, 0.000, 0.000, 0.000, 0.000, 0.000, 0.000, 0.000, 0.000
Radiant to Convective Decay Curves for Heating,RETURN_PLENUM,WALL-1PB, 0.000, 0.000, 0.000, 0.000, 0.000, 0.000, 0.000, 0.000, 0.000, 0.000, 0.000, 0.000, 0.000, 0.000, 0.000, 0.000, 0.000, 0.000, 0.000, 0.000, 0.000, 0.000, 0.000, 0.000, 0.000, 0.000, 0.000, 0.000, 0.000, 0.000, 0.000, 0.000, 0.000, 0.000, 0.000, 0.000
Radiant to Convective Decay Curves for Heating,RETURN_PLENUM,WALL-1PL, 0.000, 0.000, 0.000, 0.000, 0.000, 0.000, 0.000, 0.000, 0.000, 0.000, 0.000, 0.000, 0.000, 0.000, 0.000, 0.000, 0.000, 0.000, 0.000, 0.000, 0.000, 0.000, 0.000, 0.000, 0.000, 0.000, 0.000, 0.000, 0.000, 0.000, 0.000, 0.000, 0.000, 0.000, 0.000, 0.000
Radiant to Convective Decay Curves for Heating,RETURN_PLENUM,C1-1P, 0.000, 0.000, 0.000, 0.000, 0.000, 0.000, 0.000, 0.000, 0.000, 0.000, 0.000, 0.000, 0.000, 0.000, 0.000, 0.000, 0.000, 0.000, 0.000, 0.000, 0.000, 0.000, 0.000, 0.000, 0.000, 0.000, 0.000, 0.000, 0.000, 0.000, 0.000, 0.000, 0.000, 0.000, 0.000, 0.000
Radiant to Convective Decay Curves for Heating,RETURN_PLENUM,C2-1P, 0.000, 0.000, 0.000, 0.000, 0.000, 0.000, 0.000, 0.000, 0.000, 0.000, 0.000, 0.000, 0.000, 0.000, 0.000, 0.000, 0.000, 0.000, 0.000, 0.000, 0.000, 0.000, 0.000, 0.000, 0.000, 0.000, 0.000, 0.000, 0.000, 0.000, 0.000, 0.000, 0.000, 0.000, 0.000, 0.000
Radiant to Convective Decay Curves for Heating,RETURN_PLENUM,C3-1P, 0.000, 0.000, 0.000, 0.000, 0.000, 0.000, 0.000, 0.000, 0.000, 0.000, 0.000, 0.000, 0.000, 0.000, 0.000, 0.000, 0.000, 0.000, 0.000, 0.000, 0.000, 0.000, 0.000, 0.000, 0.000, 0.000, 0.000, 0.000, 0.000, 0.000, 0.000, 0.000, 0.000, 0.000, 0.000, 0.000
Radiant to Convective Decay Curves for Heating,RETURN_PLENUM,C4-1P, 0.000, 0.000, 0.000, 0.000, 0.000, 0.000, 0.000, 0.000, 0.000, 0.000, 0.000, 0.000, 0.000, 0.000, 0.000, 0.000, 0.000, 0.000, 0.000, 0.000, 0.000, 0.000, 0.000, 0.000, 0.000, 0.000, 0.000, 0.000, 0.000, 0.000, 0.000, 0.000, 0.000, 0.000, 0.000, 0.000
Radiant to Convective Decay Curves for Heating,RETURN_PLENUM,C5-1P, 0.000, 0.000, 0.000, 0.000, 0.000, 0.000, 0.000, 0.000, 0.000, 0.000, 0.000, 0.000, 0.000, 0.000, 0.000, 0.000, 0.000, 0.000, 0.000, 0.000, 0.000, 0.000, 0.000, 0.000, 0.000, 0.000, 0.000, 0.000, 0.000, 0.000, 0.000, 0.000, 0.000, 0.000, 0.000, 0.000
Radiant to Convective Decay Curves for Heating,RETURN_PLENUM,TOP-1, 0.000, 0.000, 0.000, 0.000, 0.000, 0.000, 0.000, 0.000, 0.000, 0.000, 0.000, 0.000, 0.000, 0.000, 0.000, 0.000, 0.000, 0.000, 0.000, 0.000, 0.000, 0.000, 0.000, 0.000, 0.000, 0.000, 0.000, 0.000, 0.000, 0.000, 0.000, 0.000, 0.000, 0.000, 0.000, 0.000
Radiant to Convective Decay Curves for Cooling,CLASSROOM_SOUTH,FRONT-1, 0.257, 0.158, 0.107, 0.076, 0.057, 0.044, 0.036, 0.030, 0.026, 0.022, 0.020, 0.018, 0.016, 0.015, 0.014, 0.013, 0.012, 0.011, 0.010, 0.009, 0.009, 0.008, 0.008, 0.007, 0.007, 0.006, 0.006, 0.005, 0.005, 0.005, 0.004, 0.004, 0.004, 0.004, 0.003, 0.003
Radiant to Convective Decay Curves for Cooling,CLASSROOM_SOUTH,WF-1, 0.244, 0.123, 0.048, 0.037, 0.029, 0.025, 0.021, 0.018, 0.017, 0.015, 0.013, 0.012, 0.011, 0.010, 0.009, 0.009, 0.008, 0.007, 0.007, 0.006, 0.006, 0.006, 0.005, 0.005, 0.005, 0.004, 0.004, 0.004, 0.004, 0.003, 0.003, 0.003, 0.003, 0.003, 0.002, 0.002
Radiant to Convective Decay Curves for Cooling,CLASSROOM_SOUTH,DF-1, 0.125, 0.064, 0.025, 0.019, 0.015, 0.013, 0.011, 0.010, 0.009, 0.008, 0.007, 0.006, 0.006, 0.005, 0.005, 0.004, 0.004, 0.004, 0.004, 0.003, 0.003, 0.003, 0.003, 0.003, 0.002, 0.002, 0.002, 0.002, 0.002, 0.002, 0.002, 0.002, 0.001, 0.001, 0.001, 0.001
Radiant to Convective Decay Curves for Cooling,CLASSROOM_SOUTH,SB12, 0.239, 0.149, 0.109, 0.082, 0.063, 0.049, 0.040, 0.033, 0.028, 0.024, 0.021, 0.019, 0.017, 0.015, 0.014, 0.013, 0.012, 0.011, 0.010, 0.009, 0.009, 0.008, 0.007, 0.007, 0.007, 0.006, 0.006, 0.005, 0.005, 0.005, 0.004, 0.004, 0.004, 0.004, 0.003, 0.003
Radiant to Convective Decay Curves for Cooling,CLASSROOM_SOUTH,SB14, 0.240, 0.150, 0.110, 0.082, 0.064, 0.050, 0.040, 0.033, 0.028, 0.024, 0.021, 0.019, 0.017, 0.015, 0.014, 0.013, 0.012, 0.011, 0.010, 0.009, 0.009, 0.008, 0.008, 0.007, 0.007, 0.006, 0.006, 0.005, 0.005, 0.005, 0.004, 0.004, 0.004, 0.004, 0.003, 0.003
Radiant to Convective Decay Curves for Cooling,CLASSROOM_SOUTH,SB15, 0.243, 0.156, 0.115, 0.086, 0.066, 0.052, 0.042, 0.035, 0.029, 0.025, 0.022, 0.020, 0.018, 0.016, 0.015, 0.014, 0.013, 0.012, 0.011, 0.010, 0.009, 0.009, 0.008, 0.008, 0.007, 0.007, 0.006, 0.006, 0.005, 0.005, 0.005, 0.005, 0.004, 0.004, 0.004, 0.003
Radiant to Convective Decay Curves for Cooling,CLASSROOM_SOUTH,F1-1, 0.028, 0.015, 0.013, 0.011, 0.010, 0.009, 0.008, 0.007, 0.006, 0.005, 0.005, 0.004, 0.004, 0.004, 0.003, 0.003, 0.003, 0.002, 0.002, 0.002, 0.002, 0.002, 0.002, 0.002, 0.001, 0.001, 0.001, 0.001, 0.001, 0.001, 0.001, 0.001, 0.001, 0.001, 0.001, 0.001
Radiant to Convective Decay Curves for Cooling,CLASSROOM_SOUTH,C1-1, 0.270, 0.067, 0.055, 0.044, 0.041, 0.035, 0.032, 0.031, 0.027, 0.025, 0.023, 0.022, 0.020, 0.019, 0.018, 0.017, 0.016, 0.015, 0.014, 0.013, 0.012, 0.011, 0.011, 0.010, 0.009, 0.009, 0.008, 0.008, 0.007, 0.007, 0.006, 0.006, 0.006, 0.005, 0.005, 0.005
Radiant to Convective Decay Curves for Heating,CLASSROOM_SOUTH,FRONT-1, 0.175, 0.124, 0.090, 0.066, 0.050, 0.039, 0.031, 0.025, 0.021, 0.018, 0.016, 0.014, 0.013, 0.011, 0.010, 0.010, 0.009, 0.008, 0.008, 0.007, 0.007, 0.006, 0.006, 0.006, 0.005, 0.005, 0.005, 0.005, 0.004, 0.004, 0.004, 0.004, 0.004, 0.004, 0.003, 0.003
Radiant to Convective Decay Curves for Heating,CLASSROOM_SOUTH,WF-1, 0.238, 0.074, 0.044, 0.032, 0.025, 0.020, 0.017, 0.015, 0.013, 0.011, 0.010, 0.009, 0.008, 0.008, 0.007, 0.006, 0.006, 0.006, 0.005, 0.005, 0.005, 0.004, 0.004, 0.004, 0.004, 0.004, 0.003, 0.003, 0.003, 0.003, 0.003, 0.003, 0.003, 0.003, 0.002, 0.002
Radiant to Convective Decay Curves for Heating,CLASSROOM_SOUTH,DF-1, 0.096, 0.053, 0.032, 0.021, 0.016, 0.012, 0.010, 0.008, 0.007, 0.006, 0.006, 0.005, 0.005, 0.004, 0.004, 0.004, 0.003, 0.003, 0.003, 0.003, 0.003, 0.002, 0.002, 0.002, 0.002, 0.002, 0.002, 0.002, 0.002, 0.002, 0.002, 0.002, 0.001, 0.001, 0.001, 0.001
Radiant to Convective Decay Curves for Heating,CLASSROOM_SOUTH,SB12, 0.160, 0.117, 0.091, 0.071, 0.056, 0.044, 0.036, 0.029, 0.024, 0.020, 0.017, 0.015, 0.013, 0.012, 0.011, 0.010, 0.009, 0.008, 0.008, 0.007, 0.007, 0.006, 0.006, 0.006, 0.005, 0.005, 0.005, 0.005, 0.004, 0.004, 0.004, 0.004, 0.004, 0.003, 0.003, 0.003
Radiant to Convective Decay Curves for Heating,CLASSROOM_SOUTH,SB14, 0.160, 0.117, 0.091, 0.071, 0.056, 0.044, 0.036, 0.029, 0.024, 0.020, 0.017, 0.015, 0.013, 0.012, 0.011, 0.010, 0.009, 0.008, 0.008, 0.007, 0.007, 0.006, 0.006, 0.006, 0.005, 0.005, 0.005, 0.005, 0.004, 0.004, 0.004, 0.004, 0.004, 0.003, 0.003, 0.003
Radiant to Convective Decay Curves for Heating,CLASSROOM_SOUTH,SB15, 0.160, 0.124, 0.098, 0.076, 0.059, 0.046, 0.037, 0.030, 0.025, 0.021, 0.018, 0.016, 0.014, 0.013, 0.011, 0.010, 0.010, 0.009, 0.008, 0.008, 0.007, 0.007, 0.006, 0.006, 0.006, 0.005, 0.005, 0.005, 0.005, 0.004, 0.004, 0.004, 0.004, 0.004, 0.004, 0.003
Radiant to Convective Decay Curves for Heating,CLASSROOM_SOUTH,F1-1, 0.017, 0.012, 0.010, 0.009, 0.008, 0.007, 0.006, 0.005, 0.005, 0.004, 0.004, 0.003, 0.003, 0.003, 0.002, 0.002, 0.002, 0.002, 0.002, 0.002, 0.001, 0.001, 0.001, 0.001, 0.001, 0.001, 0.001, 0.001, 0.001, 0.001, 0.001, 0.001, 0.001, 0.001, 0.001, 0.001
Radiant to Convective Decay Curves for Heating,CLASSROOM_SOUTH,C1-1, 0.382, 0.223, 0.154, 0.126, 0.107, 0.094, 0.085, 0.078, 0.072, 0.067, 0.063, 0.060, 0.057, 0.054, 0.051, 0.049, 0.047, 0.045, 0.043, 0.041, 0.039, 0.037, 0.036, 0.034, 0.033, 0.032, 0.030, 0.029, 0.028, 0.027, 0.026, 0.025, 0.024, 0.023, 0.022, 0.021
Radiant to Convective Decay Curves for Cooling,CLASSROOM_EAST,RIGHT-1, 0.256, 0.160, 0.109, 0.078, 0.059, 0.046, 0.037, 0.031, 0.027, 0.023, 0.021, 0.018, 0.017, 0.015, 0.014, 0.013, 0.012, 0.011, 0.010, 0.009, 0.009, 0.008, 0.008, 0.007, 0.007, 0.006, 0.006, 0.006, 0.005, 0.005, 0.005, 0.004, 0.004, 0.004, 0.004, 0.003
Radiant to Convective Decay Curves for Cooling,CLASSROOM_EAST,WR-1, 0.233, 0.123, 0.055, 0.040, 0.032, 0.027, 0.023, 0.020, 0.017, 0.015, 0.014, 0.013, 0.011, 0.011, 0.009, 0.009, 0.008, 0.008, 0.007, 0.007, 0.006, 0.006, 0.005, 0.005, 0.005, 0.004, 0.004, 0.004, 0.004, 0.003, 0.003, 0.003, 0.003, 0.003, 0.003, 0.002
Radiant to Convective Decay Curves for Cooling,CLASSROOM_EAST,SB21, 0.242, 0.158, 0.118, 0.089, 0.068, 0.054, 0.043, 0.036, 0.030, 0.026, 0.022, 0.020, 0.018, 0.016, 0.015, 0.013, 0.012, 0.011, 0.011, 0.010, 0.009, 0.008, 0.008, 0.007, 0.007, 0.007, 0.006, 0.006, 0.005, 0.005, 0.005, 0.004, 0.004, 0.004, 0.004, 0.003
Radiant to Convective Decay Curves for Cooling,CLASSROOM_EAST,SB23, 0.242, 0.158, 0.118, 0.089, 0.068, 0.054, 0.043, 0.036, 0.030, 0.026, 0.023, 0.020, 0.018, 0.016, 0.015, 0.013, 0.012, 0.011, 0.010, 0.010, 0.009, 0.008, 0.008, 0.007, 0.007, 0.007, 0.006, 0.006, 0.005, 0.005, 0.005, 0.004, 0.004, 0.004, 0.004, 0.003
Radiant to Convective Decay Curves for Cooling,CLASSROOM_EAST,SB25, 0.244, 0.164, 0.123, 0.092, 0.071, 0.055, 0.045, 0.037, 0.031, 0.027, 0.023, 0.020, 0.019, 0.017, 0.015, 0.014, 0.013, 0.012, 0.011, 0.010, 0.010, 0.009, 0.008, 0.008, 0.007, 0.007, 0.006, 0.006, 0.006, 0.005, 0.005, 0.005, 0.004, 0.004, 0.004, 0.004
Radiant to Convective Decay Curves for Cooling,CLASSROOM_EAST,F2-1, 0.113, 0.062, 0.050, 0.043, 0.038, 0.033, 0.029, 0.026, 0.023, 0.020, 0.018, 0.016, 0.014, 0.003, 0.003, 0.003, 0.003, 0.002, 0.002, 0.002, 0.002, 0.002, 0.002, 0.001, 0.001, 0.001, 0.001, 0.001, 0.001, 0.001, 0.001, 0.001, 0.001, 0.001, 0.001, 0.001
Radiant to Convective Decay Curves for Cooling,CLASSROOM_EAST,C2-1, 0.274, 0.081, 0.060, 0.050, 0.045, 0.040, 0.037, 0.033, 0.031, 0.029, 0.027, 0.023, 0.023, 0.020, 0.019, 0.018, 0.017, 0.016, 0.015, 0.014, 0.013, 0.012, 0.011, 0.011, 0.010, 0.010, 0.009, 0.008, 0.008, 0.007, 0.007, 0.007, 0.006, 0.006, 0.005, 0.005
Radiant to Convective Decay Curves for Heating,CLASSROOM_EAST,RIGHT-1, 0.175, 0.125, 0.092, 0.068, 0.053, 0.041, 0.033, 0.028, 0.023, 0.020, 0.017, 0.015, 0.014, 0.012, 0.011, 0.010, 0.009, 0.009, 0.008, 0.008, 0.007, 0.007, 0.006, 0.006, 0.006, 0.005, 0.005, 0.005, 0.005, 0.004, 0.004, 0.004, 0.004, 0.004, 0.004, 0.003
[...]
 Component Sizing Information, Coil:Cooling:Water, MAIN COOLING COIL 1, Design Size Design Outlet Air Humidity Ratio [kgWater/kgDryAir], 8.00000E-003
 Component Sizing Information, Coil:Cooling:Water, MAIN COOLING COIL 1, Design Size Design Coil Load [W], 22314.66571
 Component Sizing Information, Coil:Cooling:Water, MAIN COOLING COIL 1, Design Size Design Water Flow Rate [m3/s], 1.32904E-003
 Component Sizing Information, Coil:Cooling:Water, MAIN COOLING COIL 1, Design Size Design Air Flow Rate [m3/s], 1.46921
Water Cooling Coil Capacity Information,Coil:Cooling:Water,MAIN COOLING COIL 1,33037.26,23850.78,9186.48,0.72,3073.53,31.17
 Component Sizing Information, Coil:Heating:Water, MAIN HEATING COIL 1, Design Size Rated Capacity [W], 6504.30208
 Component Sizing Information, Coil:Heating:Water, MAIN HEATING COIL 1, Design Size Maximum Water Flow Rate [m3/s], 1.43705E-004
 Component Sizing Information, Coil:Heating:Water, MAIN HEATING COIL 1, Design Size U-Factor Times Area Value [W/K], 103.07956
Water Heating Coil Capacity Information,Coil:Heating:Water,MAIN HEATING COIL 1,5514.56
 Component Sizing Information, Fan:VariableVolume, SUPPLY FAN 1, Design Size Maximum Flow Rate [m3/s], 1.46921
 Component Sizing Information, Controller:WaterCoil, CENTRAL COOLING COIL CONTROLLER 1, Maximum Actuated Flow [m3/s], 1.32904E-003
 Component Sizing Information, Controller:WaterCoil, CENTRAL HEATING COIL CONTROLLER 1, Maximum Actuated Flow [m3/s], 1.43705E-004
Water Heater Stratified Node Information,1,0.2500,1.2000,0.000,1.1616,1.1616,1,0
Water Heater Stratified Node Information,2,0.2500,1.2000,0.000,0.3345,0.3345,0,0
Water Heater Stratified Node Information,3,0.2500,1.2000,0.000,0.3345,0.3345,0,0
Water Heater Stratified Node Information,4,0.2500,1.2000,0.000,0.3345,0.3345,0,0
Water Heater Stratified Node Information,5,0.2500,1.2000,0.000,0.3345,0.3345,0,0
Water Heater Stratified Node Information,6,0.2500,1.2000,0.000,0.3345,0.3345,0,0
Water Heater Stratified Node Information,7,0.2500,1.2000,0.000,0.3345,0.3345,0,0
Water Heater Stratified Node Information,8,0.2500,1.2000,0.000,0.3345,0.3345,0,0
Water Heater Stratified Node Information,9,0.2500,1.2000,0.000,0.3345,0.3345,0,0
Water Heater Stratified Node Information,10,0.2500,1.2000,0.000,1.1616,1.1616,0,1
Water Heater Stratified Node Information,1,0.3333,1.3333,0.000,2.2951,2.2951,0,1
Water Heater Stratified Node Information,2,0.3333,1.3333,0.000,0.8524,0.8524,0,0
Water Heater Stratified Node Information,3,0.3333,1.3333,0.000,0.8524,0.8524,0,0
Water Heater Stratified Node Information,4,0.3333,1.3333,0.000,0.8524,0.8524,0,0
Water Heater Stratified Node Information,5,0.3333,1.3333,0.000,0.8524,0.8524,0,0
Water Heater Stratified Node Information,6,0.3333,1.3333,0.000,2.2951,2.2951,1,0
 Component Sizing Information, PlantLoop, HOT WATER LOOP, Maximum Loop Flow Rate [m3/s], 8.05864E-004
 Component Sizing Information, PlantLoop, HOT WATER LOOP, Plant Loop Volume [m3], 9.67037E-002
 Component Sizing Information, PlantLoop, HOT WATER LOOP, Design Supply Temperature [C], 82.00000
 Component Sizing Information, PlantLoop, HOT WATER LOOP, Design Return Temperature [C], 71.00000
 Component Sizing Information, PlantLoop, HOT WATER LOOP, Sizing option (Coincident/NonCoincident), 1.00000
 Component Sizing Information, Pump:VariableSpeed, HW CIRC PUMP, Design Flow Rate [m3/s], 8.05864E-004
 Component Sizing Information, Pump:VariableSpeed, HW CIRC PUMP, Design Power Consumption [W], 205.88789
 Component Sizing Information, HeatPump:PlantLoop:EIR:Heating, CENTRAL_ASHP, Design Size Nominal Capacity [W], 36474.69794
 Component Sizing Information, HeatPump:PlantLoop:EIR:Heating, CENTRAL_ASHP, User-Specified Nominal Capacity [W], 195800.00000
 Component Sizing Information, HeatPump:PlantLoop:EIR:Heating, CENTRAL_ASHP, Design Size Load Side Volume Flow Rate [m3/s], 8.05864E-004
 Component Sizing Information, HeatPump:PlantLoop:EIR:Heating, CENTRAL_ASHP, Design Size Source Side Volume Flow Rate [m3/s], 21.24590
 Component Sizing Information, WaterHeater:Stratified, TES_STRATIFIED, Use Side Design Flow Rate [m3/s], 8.05864E-004
Water Heater Information,WaterHeater:Stratified,TES_STRATIFIED,12.0000,0.0,0.000,0.0000
 Component Sizing Information, PlantLoop, CHILLED WATER LOOP, Maximum Loop Flow Rate [m3/s], 3.80163E-003
 Component Sizing Information, PlantLoop, CHILLED WATER LOOP, Plant Loop Volume [m3], 0.45620
 Component Sizing Information, PlantLoop, CHILLED WATER LOOP, Design Supply Temperature [C], 7.00000
 Component Sizing Information, PlantLoop, CHILLED WATER LOOP, Design Return Temperature [C], 3.00000
 Component Sizing Information, PlantLoop, CHILLED WATER LOOP, Sizing option (Coincident/NonCoincident), 1.00000
 Component Sizing Information, Pump:VariableSpeed, CW CIRC PUMP, Design Flow Rate [m3/s], 3.80163E-003
 Component Sizing Information, Pump:VariableSpeed, CW CIRC PUMP, Design Power Consumption [W], 971.26841
 Component Sizing Information, Chiller:Electric, CENTRAL CHILLER, Design Size Nominal Capacity [W], 63829.44028
 Component Sizing Information, Chiller:Electric, CENTRAL CHILLER, Design Size Design Chilled Water Flow Rate [m3/s], 3.80163E-003
 Component Sizing Information, Chiller:Electric, CENTRAL CHILLER, User-Specified Design Condenser Water Flow Rate [m3/s], 1.10000E-003
 Component Sizing Information, WaterHeater:Stratified, CHILLED_TES_STRATIFIED, Use Side Design Flow Rate [m3/s], 3.80163E-003
Water Heater Information,WaterHeater:Stratified,CHILLED_TES_STRATIFIED,8.0000,0.0,0.000,0.0000
! <Zone Surfaces>,Zone Name,# Surfaces
! <Shading Surfaces>,Number of Shading Surfaces,# Surfaces
! <HeatTransfer Surface>,Surface Name,Surface Class,Base Surface,Heat Transfer Algorithm,Construction,Nominal U (w/o film coefs) {W/m2-K},Nominal U (with film coefs) {W/m2-K},Solar Diffusing,Area (Net) {m2},Area (Gross) {m2},Area (Sunlit Calc) {m2},Azimuth {deg},Tilt {deg},~Width {m},~Height {m},Reveal {m},ExtBoundCondition,ExtConvCoeffCalc,IntConvCoeffCalc,SunExposure,WindExposure,ViewFactorToGround,ViewFactorToSky,ViewFactorToGround-IR,ViewFactorToSky-IR,#Sides
! <Shading Surface>,Surface Name,Surface Class,Base Surface,Heat Transfer Algorithm,Transmittance Schedule,Min Schedule Value,Max Schedule Value,Solar Diffusing,Area (Net) {m2},Area (Gross) {m2},Area (Sunlit Calc) {m2},Azimuth {deg},Tilt {deg},~Width {m},~Height {m},Reveal {m},ExtBoundCondition,ExtConvCoeffCalc,IntConvCoeffCalc,SunExposure,WindExposure,ViewFactorToGround,ViewFactorToSky,ViewFactorToGround-IR,ViewFactorToSky-IR,#Sides
! <Frame/Divider Surface>,Surface Name,Surface Class,Base Surface,Heat Transfer Algorithm,Construction,Nominal U (w/o film coefs) {W/m2-K},Nominal U (with film coefs) {W/m2-K},Solar Diffusing,Area (Net) {m2},Area (Gross) {m2},Area (Sunlit Calc) {m2},Azimuth {deg},Tilt {deg},~Width {m},~Height {m},Reveal {m}
Shading Surfaces,Number of Shading Surfaces,4
Shading Surface,MAIN SOUTH OVERHANG,Shading,FRONT-1,None,SHADETRANSSCH,0.00,0.00, ,25.74,25.74,25.74,180.00,180.00,19.80,1.30,,,,,,,,,,,4
Shading Surface,Mir-MAIN SOUTH OVERHANG,Shading,FRONT-1,None,SHADETRANSSCH,0.00,0.00, ,25.74,25.74,25.74,0.00,0.00,19.80,1.30,,,,,,,,,,,4
Shading Surface,SOUTH DOOR OVERHANG,Shading,FRONT-1,None,SHADETRANSSCH,0.00,0.00, ,6.20,6.20,6.20,180.00,180.00,3.10,2.00,,,,,,,,,,,4
Shading Surface,Mir-SOUTH DOOR OVERHANG,Shading,FRONT-1,None,SHADETRANSSCH,0.00,0.00, ,6.20,6.20,6.20,0.00,0.00,3.10,2.00,,,,,,,,,,,4
Zone Surfaces,RETURN_PLENUM,10
HeatTransfer Surface,WALL-1PF,Wall,,CTF - ConductionTransferFunction,WALL-1,0.408,0.384,,18.30,18.30,18.30,180.00,90.00,30.50,0.60,0.00,ExternalEnvironment,ASHRAESimple,ASHRAESimple,SunExposed,WindExposed,0.50,0.50,0.52,0.48,4
HeatTransfer Surface,WALL-1PR,Wall,,CTF - ConductionTransferFunction,WALL-1,0.408,0.384,,9.12,9.12,9.12,90.00,90.00,15.20,0.60,0.00,ExternalEnvironment,ASHRAESimple,ASHRAESimple,SunExposed,WindExposed,0.50,0.50,0.50,0.50,4
HeatTransfer Surface,WALL-1PB,Wall,,CTF - ConductionTransferFunction,WALL-1,0.408,0.384,,18.30,18.30,18.30,0.00,90.00,30.50,0.60,0.00,ExternalEnvironment,ASHRAESimple,ASHRAESimple,SunExposed,WindExposed,0.50,0.50,0.50,0.50,4
HeatTransfer Surface,WALL-1PL,Wall,,CTF - ConductionTransferFunction,WALL-1,0.408,0.384,,9.12,9.12,9.12,270.00,90.00,15.20,0.60,0.00,ExternalEnvironment,ASHRAESimple,ASHRAESimple,SunExposed,WindExposed,0.50,0.50,0.50,0.50,4
HeatTransfer Surface,C1-1P,Floor,,CTF - ConductionTransferFunction,CLNG-1,1.533,1.117,,99.16,99.16,99.16,0.00,180.00,30.50,5.23,0.00,C1-1,Other/Same Surface Int Conv,ASHRAESimple,NoSun,NoWind,0.00,0.00,1.00,0.00,4
HeatTransfer Surface,C2-1P,Floor,,CTF - ConductionTransferFunction,CLNG-1,1.533,1.117,,42.74,42.74,42.74,270.00,180.00,15.20,5.16,0.00,C2-1,Other/Same Surface Int Conv,ASHRAESimple,NoSun,NoWind,0.00,0.00,1.00,0.00,4
HeatTransfer Surface,C3-1P,Floor,,CTF - ConductionTransferFunction,CLNG-1,1.533,1.117,,96.48,96.48,96.48,44.22,180.00,5.16,23.10,0.00,C3-1,Other/Same Surface Int Conv,ASHRAESimple,NoSun,NoWind,0.00,0.00,1.00,0.00,4
HeatTransfer Surface,C4-1P,Floor,,CTF - ConductionTransferFunction,CLNG-1,1.533,1.117,,42.74,42.74,42.74,90.00,180.00,15.20,5.23,0.00,C4-1,Other/Same Surface Int Conv,ASHRAESimple,NoSun,NoWind,0.00,0.00,1.00,0.00,4
HeatTransfer Surface,C5-1P,Floor,,CTF - ConductionTransferFunction,CLNG-1,1.533,1.117,,182.49,182.49,182.49,0.00,180.00,23.10,7.90,0.00,C5-1,Other/Same Surface Int Conv,ASHRAESimple,NoSun,NoWind,0.00,0.00,1.00,0.00,4
HeatTransfer Surface,TOP-1,Roof,,CTF - ConductionTransferFunction,ROOF-1,0.326,0.307,,463.60,463.60,463.60,180.00,0.00,30.50,15.20,0.00,ExternalEnvironment,ASHRAESimple,ASHRAESimple,SunExposed,WindExposed,0.00,1.00,0.00,1.00,4
Zone Surfaces,CLASSROOM_SOUTH,8
HeatTransfer Surface,FRONT-1,Wall,,CTF - ConductionTransferFunction,WALL-1,0.408,0.384,,51.39,73.20,51.39,180.00,90.00,30.50,2.40,0.00,ExternalEnvironment,ASHRAESimple,ASHRAESimple,SunExposed,WindExposed,0.50,0.50,0.61,0.39,4
HeatTransfer Surface,WF-1,Window,FRONT-1,Window5 Detailed Fenestration,DBL CLR 3MM/13MM AIR,N/A,2.665,No,16.56,16.56,16.56,180.00,90.00,13.80,1.20,0.00,ExternalEnvironment,ASHRAESimple,ASHRAESimple,SunExposed,WindExposed,0.50,0.50,0.78,0.22,4
HeatTransfer Surface,DF-1,Window,FRONT-1,Window5 Detailed Fenestration,SGL GREY 3MM,N/A,5.894,No,5.25,5.25,5.25,180.00,90.00,2.50,2.10,0.00,ExternalEnvironment,ASHRAESimple,ASHRAESimple,SunExposed,WindExposed,0.50,0.50,0.66,0.34,4
HeatTransfer Surface,SB12,Wall,,CTF - ConductionTransferFunction,INT-WALL-1,2.811,1.978,,12.56,12.56,12.56,45.00,90.00,5.23,2.40,0.00,SB21,Other/Same Surface Int Conv,ASHRAESimple,NoSun,NoWind,0.00,0.50,0.50,0.50,4
HeatTransfer Surface,SB14,Wall,,CTF - ConductionTransferFunction,INT-WALL-1,2.811,1.978,,12.56,12.56,12.56,315.00,90.00,5.23,2.40,0.00,SB41,Other/Same Surface Int Conv,ASHRAESimple,NoSun,NoWind,0.00,0.50,0.50,0.50,4
HeatTransfer Surface,SB15,Wall,,CTF - ConductionTransferFunction,INT-WALL-1,2.811,1.978,,55.44,55.44,55.44,0.00,90.00,23.10,2.40,0.00,SB51,Other/Same Surface Int Conv,ASHRAESimple,NoSun,NoWind,0.00,0.50,0.50,0.50,4
HeatTransfer Surface,F1-1,Floor,,CTF - ConductionTransferFunction,FLOOR-SLAB-1,12.894,3.119,,99.16,99.16,99.16,0.00,180.00,30.50,5.23,0.00,Ground,N/A-Ground,ASHRAESimple,NoSun,NoWind,0.00,0.00,1.00,0.00,4
HeatTransfer Surface,C1-1,Roof,,CTF - ConductionTransferFunction,CLNG-1,1.533,1.189,,99.16,99.16,99.16,180.00,0.00,30.50,5.23,0.00,C1-1P,Other/Same Surface Int Conv,ASHRAESimple,NoSun,NoWind,0.00,1.00,0.00,1.00,4
Zone Surfaces,CLASSROOM_EAST,7
HeatTransfer Surface,RIGHT-1,Wall,,CTF - ConductionTransferFunction,WALL-1,0.408,0.384,,27.36,36.48,27.36,90.00,90.00,15.20,2.40,0.00,ExternalEnvironment,ASHRAESimple,ASHRAESimple,SunExposed,WindExposed,0.50,0.50,0.50,0.50,4
HeatTransfer Surface,WR-1,Window,RIGHT-1,Window5 Detailed Fenestration,DBL CLR 3MM/13MM AIR,N/A,2.665,No,9.12,9.12,9.12,90.00,90.00,7.60,1.20,0.00,ExternalEnvironment,ASHRAESimple,ASHRAESimple,SunExposed,WindExposed,0.50,0.50,0.50,0.50,4
HeatTransfer Surface,SB21,Wall,,CTF - ConductionTransferFunction,INT-WALL-1,2.811,1.978,,12.56,12.56,12.56,225.00,90.00,5.23,2.40,0.00,SB12,Other/Same Surface Int Conv,ASHRAESimple,NoSun,NoWind,0.00,0.50,0.50,0.50,4
HeatTransfer Surface,SB23,Wall,,CTF - ConductionTransferFunction,INT-WALL-1,2.811,1.978,,12.39,12.39,12.39,315.78,90.00,5.16,2.40,0.00,SB32,Other/Same Surface Int Conv,ASHRAESimple,NoSun,NoWind,0.00,0.50,0.50,0.50,4
HeatTransfer Surface,SB25,Wall,,CTF - ConductionTransferFunction,INT-WALL-1,2.811,1.978,,18.96,18.96,18.96,270.00,90.00,7.90,2.40,0.00,SB52,Other/Same Surface Int Conv,ASHRAESimple,NoSun,NoWind,0.00,0.50,0.50,0.50,4
HeatTransfer Surface,F2-1,Floor,,CTF - ConductionTransferFunction,FLOOR-SLAB-1,12.894,3.119,,42.74,42.74,42.74,270.00,180.00,15.20,5.16,0.00,Ground,N/A-Ground,ASHRAESimple,NoSun,NoWind,0.00,0.00,1.00,0.00,4
HeatTransfer Surface,C2-1,Roof,,CTF - ConductionTransferFunction,CLNG-1,1.533,1.189,,42.74,42.74,42.74,90.00,0.00,15.20,5.23,0.00,C2-1P,Other/Same Surface Int Conv,ASHRAESimple,NoSun,NoWind,0.00,1.00,0.00,1.00,4
Zone Surfaces,CLASSROOM_NORTH,8
HeatTransfer Surface,BACK-1,Wall,,CTF - ConductionTransferFunction,WALL-1,0.408,0.384,,52.35,73.20,52.35,0.00,90.00,30.50,2.40,0.00,ExternalEnvironment,ASHRAESimple,ASHRAESimple,SunExposed,WindExposed,0.50,0.50,0.50,0.50,4
HeatTransfer Surface,WB-1,Window,BACK-1,Window5 Detailed Fenestration,DBL CLR 3MM/13MM AIR,N/A,2.665,No,16.44,16.44,16.44,0.00,90.00,13.70,1.20,0.00,ExternalEnvironment,ASHRAESimple,ASHRAESimple,SunExposed,WindExposed,0.50,0.50,0.50,0.50,4
HeatTransfer Surface,DB-1,Window,BACK-1,Window5 Detailed Fenestration,SGL GREY 3MM,N/A,5.894,No,4.41,4.41,4.41,0.00,90.00,2.10,2.10,0.00,ExternalEnvironment,ASHRAESimple,ASHRAESimple,SunExposed,WindExposed,0.50,0.50,0.50,0.50,4
HeatTransfer Surface,SB32,Wall,,CTF - ConductionTransferFunction,INT-WALL-1,2.811,1.978,,12.39,12.39,12.39,135.78,90.00,5.16,2.40,0.00,SB23,Other/Same Surface Int Conv,ASHRAESimple,NoSun,NoWind,0.00,0.50,0.50,0.50,4
HeatTransfer Surface,SB34,Wall,,CTF - ConductionTransferFunction,INT-WALL-1,2.811,1.978,,12.39,12.39,12.39,224.22,90.00,5.16,2.40,0.00,SB43,Other/Same Surface Int Conv,ASHRAESimple,NoSun,NoWind,0.00,0.50,0.50,0.50,4
HeatTransfer Surface,SB35,Wall,,CTF - ConductionTransferFunction,INT-WALL-1,2.811,1.978,,55.44,55.44,55.44,180.00,90.00,23.10,2.40,0.00,SB53,Other/Same Surface Int Conv,ASHRAESimple,NoSun,NoWind,0.00,0.50,0.50,0.50,4
HeatTransfer Surface,F3-1,Floor,,CTF - ConductionTransferFunction,FLOOR-SLAB-1,12.894,3.119,,96.48,96.48,96.48,44.22,180.00,5.16,23.10,0.00,Ground,N/A-Ground,ASHRAESimple,NoSun,NoWind,0.00,0.00,1.00,0.00,4
HeatTransfer Surface,C3-1,Roof,,CTF - ConductionTransferFunction,CLNG-1,1.533,1.189,,96.48,96.48,96.48,224.22,0.00,5.16,30.50,0.00,C3-1P,Other/Same Surface Int Conv,ASHRAESimple,NoSun,NoWind,0.00,1.00,0.00,1.00,4
Zone Surfaces,CLASSROOM_WEST,7
HeatTransfer Surface,LEFT-1,Wall,,CTF - ConductionTransferFunction,WALL-1,0.408,0.384,,27.36,36.48,27.36,270.00,90.00,15.20,2.40,0.00,ExternalEnvironment,ASHRAESimple,ASHRAESimple,SunExposed,WindExposed,0.50,0.50,0.50,0.50,4
HeatTransfer Surface,WL-1,Window,LEFT-1,Window5 Detailed Fenestration,DBL CLR 3MM/13MM AIR,N/A,2.665,No,9.12,9.12,9.12,270.00,90.00,7.60,1.20,0.00,ExternalEnvironment,ASHRAESimple,ASHRAESimple,SunExposed,WindExposed,0.50,0.50,0.50,0.50,4
HeatTransfer Surface,SB41,Wall,,CTF - ConductionTransferFunction,INT-WALL-1,2.811,1.978,,12.56,12.56,12.56,135.00,90.00,5.23,2.40,0.00,SB14,Other/Same Surface Int Conv,ASHRAESimple,NoSun,NoWind,0.00,0.50,0.50,0.50,4
HeatTransfer Surface,SB43,Wall,,CTF - ConductionTransferFunction,INT-WALL-1,2.811,1.978,,12.39,12.39,12.39,44.22,90.00,5.16,2.40,0.00,SB34,Other/Same Surface Int Conv,ASHRAESimple,NoSun,NoWind,0.00,0.50,0.50,0.50,4
HeatTransfer Surface,SB45,Wall,,CTF - ConductionTransferFunction,INT-WALL-1,2.811,1.978,,18.96,18.96,18.96,90.00,90.00,7.90,2.40,0.00,SB54,Other/Same Surface Int Conv,ASHRAESimple,NoSun,NoWind,0.00,0.50,0.50,0.50,4
HeatTransfer Surface,F4-1,Floor,,CTF - ConductionTransferFunction,FLOOR-SLAB-1,12.894,3.119,,42.74,42.74,42.74,90.00,180.00,15.20,5.23,0.00,Ground,N/A-Ground,ASHRAESimple,NoSun,NoWind,0.00,0.00,1.00,0.00,4
HeatTransfer Surface,C4-1,Roof,,CTF - ConductionTransferFunction,CLNG-1,1.533,1.189,,42.74,42.74,42.74,270.00,0.00,15.20,5.16,0.00,C4-1P,Other/Same Surface Int Conv,ASHRAESimple,NoSun,NoWind,0.00,1.00,0.00,1.00,4
Zone Surfaces,CORRIDOR,6
HeatTransfer Surface,SB51,Wall,,CTF - ConductionTransferFunction,INT-WALL-1,2.811,1.978,,55.44,55.44,55.44,180.00,90.00,23.10,2.40,0.00,SB15,Other/Same Surface Int Conv,ASHRAESimple,NoSun,NoWind,0.00,0.50,0.50,0.50,4
HeatTransfer Surface,SB52,Wall,,CTF - ConductionTransferFunction,INT-WALL-1,2.811,1.978,,18.96,18.96,18.96,90.00,90.00,7.90,2.40,0.00,SB25,Other/Same Surface Int Conv,ASHRAESimple,NoSun,NoWind,0.00,0.50,0.50,0.50,4
HeatTransfer Surface,SB53,Wall,,CTF - ConductionTransferFunction,INT-WALL-1,2.811,1.978,,55.44,55.44,55.44,0.00,90.00,23.10,2.40,0.00,SB35,Other/Same Surface Int Conv,ASHRAESimple,NoSun,NoWind,0.00,0.50,0.50,0.50,4
HeatTransfer Surface,SB54,Wall,,CTF - ConductionTransferFunction,INT-WALL-1,2.811,1.978,,18.96,18.96,18.96,270.00,90.00,7.90,2.40,0.00,SB45,Other/Same Surface Int Conv,ASHRAESimple,NoSun,NoWind,0.00,0.50,0.50,0.50,4
HeatTransfer Surface,F5-1,Floor,,CTF - ConductionTransferFunction,FLOOR-SLAB-1,12.894,3.119,,182.49,182.49,182.49,0.00,180.00,23.10,7.90,0.00,Ground,N/A-Ground,ASHRAESimple,NoSun,NoWind,0.00,0.00,1.00,0.00,4
HeatTransfer Surface,C5-1,Roof,,CTF - ConductionTransferFunction,CLNG-1,1.533,1.189,,182.49,182.49,182.49,180.00,0.00,23.10,7.90,0.00,C5-1P,Other/Same Surface Int Conv,ASHRAESimple,NoSun,NoWind,0.00,1.00,0.00,1.00,4
! <Environment>,Environment Name,Environment Type, Start Date, End Date, Start DayOfWeek, Duration {#days}, Source:Start DayOfWeek,  Use Daylight Saving, Use Holidays, Apply Weekend Holiday Rule,  Use Rain Values, Use Snow Values, Sky Temperature Model
! <Environment:Special Days>, Special Day Name, Special Day Type, Source, Start Date, Duration {#days}
! <Environment:Daylight Saving>, Daylight Saving Indicator, Source, Start Date, End Date
! <Environment:WarmupDays>, NumberofWarmupDays
Environment,RUN PERIOD 1,WeatherFileRunPeriod,01/01/2013,12/31/2013,Tuesday,365,Use RunPeriod Specified Day,Yes,Yes,No,Yes,Yes,Clark and Allen
Environment:Daylight Saving,No,
Environment:WarmupDays,  6
! <Warmup Convergence Information>,Zone Name,Environment Type/Name,Average Warmup Temperature Difference {deltaC},Std Dev Warmup Temperature Difference {deltaC},Max Temperature Pass/Fail Convergence,Min Temperature Pass/Fail Convergence,Average Warmup Load Difference {W},Std Dev Warmup Load Difference {W},Heating Load Pass/Fail Convergence,Cooling Load Pass/Fail Convergence
 Warmup Convergence Information,RETURN_PLENUM,RunPeriod: RUN PERIOD 1,0.1362548753,0.2090347596,Pass,Pass,0.1184415143,0.2602825706,Pass,Pass
 Warmup Convergence Information,CLASSROOM_SOUTH,RunPeriod: RUN PERIOD 1,0.1975493668,0.6184832017,Pass,Pass,0.6219110006,2.5410217104,Pass,Pass
 Warmup Convergence Information,CLASSROOM_EAST,RunPeriod: RUN PERIOD 1,0.2340254931,0.8617632415,Pass,Pass,0.2758734690,0.6995784559,Pass,Pass
 Warmup Convergence Information,CLASSROOM_NORTH,RunPeriod: RUN PERIOD 1,0.1370764388,0.1949683196,Pass,Pass,0.6605669443,3.4956601927,Pass,Pass
 Warmup Convergence Information,CLASSROOM_WEST,RunPeriod: RUN PERIOD 1,0.1441443262,0.2573195869,Pass,Pass,0.5165800756,3.0601745908,Pass,Pass
 Warmup Convergence Information,CORRIDOR,RunPeriod: RUN PERIOD 1,0.1077173865,0.1438602381,Pass,Pass,0.2367142906,1.2428571852,Pass,Pass
! <Program Control Information:Threads/Parallel Sims>, Threading Supported,Maximum Number of Threads, Env Set Threads (OMP_NUM_THREADS), EP Env Set Threads (EP_OMP_NUM_THREADS), IDF Set Threads, Number of Threads Used (Interior Radiant Exchange), Number Nominal Surfaces, Number Parallel Sims
Program Control:Threads/Parallel Sims, No,1, N/A, N/A, N/A, N/A, N/A, N/A
End of Data
